Public_Data_PSSEFiles/LL_Report/A03d_BaseCaseDERPVGen_07062018.raw
0,100.0


1,'Costa su    ',115.0,1,0.0,0.0,1,1,1.0129535266,-10.4267133884,1
2,'Bayamon     ',115.0,1,0.0,0.0,1,1,1.0165156821,-10.1071557721,1
3,'Rio Laja    ',115.0,1,0.0,0.0,1,1,1.0175931801,-10.5123227661,1
4,'Mayaguez    ',115.0,1,0.0,0.0,1,1,1.0295917,-9.4957850691,1
5,'Aguadill    ',115.0,1,0.0,0.0,1,1,1.0271174712,-9.4429993564,1
6,'Mora        ',115.0,1,0.0,0.0,1,1,1.0219165099,-9.3710615373,1
7,'San Anto    ',115.0,1,0.0,0.0,1,1,1.0199351695,-9.4234397695,1
8,'Monacill    ',115.0,1,0.0,0.0,1,1,1.0176803366,-10.1824088692,1
9,'Aguas Bu    ',115.0,1,0.0,0.0,1,1,1.0156628619,-10.1142003334,1
10,'Aurora      ',115.0,1,0.0,0.0,1,1,1.0045504154,-7.7078401618,1
11,'Ecoelect    ',115.0,1,0.0,0.0,1,1,0.9713132142,-9.4015584201,1
12,'Arecibo     ',115.0,1,0.0,0.0,1,1,1.0147237554,-9.8945086422,1
13,'Toro Neg    ',115.0,1,0.0,0.0,1,1,0.9801827809,-10.4367891565,1
14,'Ponce       ',115.0,1,0.0,0.0,1,1,0.9760786342,-8.8449193422,1
15,'San Seba    ',115.0,1,0.0,0.0,1,1,1.0213086022,-9.5996548598,1
16,'Don Boco    ',115.0,1,0.0,0.0,1,1,1.0035309447,-10.3712140415,1
17,'Pajaros     ',115.0,1,0.0,0.0,1,1,1.0177159711,-9.806830968,1
18,'Ciales      ',115.0,1,0.0,0.0,1,1,1.0113262109,-10.1456014903,1
19,'Dos Boca    ',115.0,1,0.0,0.0,1,1,1.0034901917,-10.3729813996,1
20,'Sabana L    ',115.0,1,0.0,0.0,1,1,1.019544812,-9.8105514421,1
21,'Caguas      ',115.0,1,0.0,0.0,1,1,1.0086355297,-10.4391483539,1
22,'San Juan    ',115.0,1,0.0,0.0,1,1,1.0188013966,-9.8193115216,1
23,'Puerto N    ',115.0,1,0.0,0.0,1,1,1.0188165025,-9.819451348,1
24,'Union Ca    ',115.0,1,0.0,0.0,1,1,1.0157351291,-9.5369648195,1
25,'San Juan    ',115.0,1,0.0,0.0,1,1,1.0178748951,-9.8731160581,1
26,'Hato Rey    ',115.0,1,0.0,0.0,1,1,1.0195679784,-9.7841217126,1
27,'Daguao      ',115.0,1,0.0,0.0,1,1,1.0231606511,-10.1248447308,1
28,'Trujillo    ',115.0,1,0.0,0.0,1,1,1.020245202,-10.4097966781,1
29,'Fajardo     ',115.0,1,0.0,0.0,1,1,1.0294628689,-11.5664142851,1
30,'Aguirre     ',115.0,3,0.0,0.0,1,1,0.9755923453,0.0,1
31,'Maunabo     ',115.0,1,0.0,0.0,1,1,0.999509425,-8.8259412669,1
32,'Candeler    ',115.0,1,0.0,0.0,1,1,1.0148145419,-9.6168662427,1
33,'Humacao     ',115.0,1,0.0,0.0,1,1,1.0119333262,-10.0810958606,1
34,'Comerio     ',115.0,1,0.0,0.0,1,1,1.0057285939,-10.5439097546,1
35,'Coto Nor    ',115.0,1,0.0,0.0,1,1,1.0179350242,-10.7433767006,1
36,'Monte Ca    ',115.0,1,0.0,0.0,1,1,1.0013172434,-12.1455457656,1
37,'Central     ',115.0,1,0.0,0.0,1,1,1.006149366,-9.1326562891,1
38,'Cayey       ',115.0,1,0.0,0.0,1,1,1.008383412,-9.7720853981,1
39,'Toro Neg    ',115.0,1,0.0,0.0,1,1,1.0206508534,-10.1605169006,1
40,'Central     ',115.0,1,0.0,0.0,1,1,1.0138928963,-10.2322532054,1
41,'Planta d    ',115.0,1,0.0,0.0,1,1,1.005708517,-10.6611132218,1
42,'Planta d    ',115.0,1,0.0,0.0,1,1,1.0036975282,-10.4417191918,1
43,'Central     ',115.0,1,0.0,0.0,1,1,1.0081323052,-8.8763514588,1
44,'Rio Blan    ',115.0,1,0.0,0.0,1,1,1.0210329363,-9.7788339595,1
45,'Quebrada    ',115.0,1,0.0,0.0,1,1,1.0080380085,-10.4032295437,1
46,'Caonilla    ',115.0,2,0.0,0.0,1,1,1.008045673,-10.1144083974,1
47,'Loiza Ta    ',115.0,1,0.0,0.0,1,1,1.003933135,-10.3687406296,1
48,'Yabucoa     ',115.0,1,0.0,0.0,1,1,1.0110616126,-9.2620259878,1
49,'Planta H    ',115.0,1,0.0,0.0,1,1,1.006268724,-10.6504516471,1
50,'Olimpo T    ',115.0,1,0.0,0.0,1,1,1.0082351018,-8.9020703661,1
51,'Aguas Bu    ',230.0,1,0.0,0.0,1,1,1.0327937358,-8.8646015411,1
52,'Aguirre_    ',230.0,1,0.0,0.0,1,1,1.0320473426,-7.2233608318,1
53,'Aurora_H    ',230.0,1,0.0,0.0,1,1,1.0315376408,-8.8230091392,1
54,'Bayamon_    ',230.0,1,0.0,0.0,1,1,1.0329250868,-9.1590820214,1
55,'Candeler    ',230.0,1,0.0,0.0,1,1,1.0284075151,-9.0763993816,1
56,'Comerio_    ',230.0,1,0.0,0.0,1,1,1.0142066904,-10.1660480719,1
57,'Costa su    ',230.0,1,0.0,0.0,1,1,1.0388977412,-8.6087272758,1
58,'Coto Nor    ',230.0,1,0.0,0.0,1,1,1.0359205173,-9.3581665198,1
59,'Mayaguez    ',230.0,1,0.0,0.0,1,1,1.0401659367,-9.0094671083,1
60,'Rio Blan    ',230.0,1,0.0,0.0,1,1,1.0313863194,-9.2986555475,1
61,'Sabana L    ',230.0,1,0.0,0.0,1,1,1.0331783857,-9.108352436,1
62,'kVSub19     ',38.0,2,0.0,0.0,1,1,1.0181378184,-10.9579148117,1
63,'kVSub21     ',38.0,1,0.0,0.0,1,1,1.0187539213,-9.2398321883,1
64,'kVSub28     ',38.0,1,0.0,0.0,1,1,1.0187548086,-9.2398536059,1
65,'kVSub46     ',38.0,1,0.0,0.0,1,1,1.0187548083,-9.2398447874,1
66,'kVSub66     ',38.0,1,0.0,0.0,1,1,0.9901901457,-10.8999324775,1
67,'kVSub124    ',38.0,2,0.0,0.0,1,1,1.0187543818,-9.2398443931,1
68,'kVSub41     ',38.0,2,0.0,0.0,1,1,0.9917448812,-11.7343769372,1
69,'kVSub0      ',38.0,2,0.0,0.0,1,1,0.9917447092,-11.7343837166,1
70,'kVSub102    ',38.0,1,0.0,0.0,1,1,1.0187540078,-9.2398429353,1
71,'kVSub139    ',38.0,2,0.0,0.0,1,1,0.9901899905,-10.8999578359,1
72,'kVSub285    ',38.0,1,0.0,0.0,1,1,0.9619189256,-10.554023088,1
73,'kVSub297    ',38.0,1,0.0,0.0,1,1,1.0174736247,-13.0183857996,1
74,'kVSub136    ',38.0,1,0.0,0.0,1,1,1.0187501149,-9.2395019997,1
75,'kVSub142    ',38.0,1,0.0,0.0,1,1,0.9950701034,-12.0384413345,1
76,'kVSub192    ',38.0,1,0.0,0.0,1,1,1.0080217316,-11.3137428985,1
77,'kVSub294    ',38.0,1,0.0,0.0,1,1,0.9615277732,-16.6156981674,1
78,'kVSub88     ',38.0,1,0.0,0.0,1,1,1.002708906,-11.0020254397,1
79,'kVSub83     ',38.0,1,0.0,0.0,1,1,0.9917448298,-11.7343802176,1
80,'kVSub239    ',38.0,1,0.0,0.0,1,1,1.0187525403,-9.2404387865,1
81,'kVSub245    ',38.0,1,0.0,0.0,1,1,1.0187549533,-9.2397842982,1
82,'kVSub264    ',38.0,1,0.0,0.0,1,1,1.0187528673,-9.2403614098,1
83,'kVSub299    ',38.0,1,0.0,0.0,1,1,1.0187548233,-9.2398519913,1
84,'kVSub165    ',38.0,2,0.0,0.0,1,1,0.9901899788,-10.8999593081,1
85,'kVSub182    ',38.0,1,0.0,0.0,1,1,0.9901899614,-10.8999566305,1
86,'kVSub288    ',38.0,1,0.0,0.0,1,1,0.9726719961,-11.3537487284,1
87,'kVSub125    ',38.0,2,0.0,0.0,1,1,1.0187548103,-9.2398443659,1
88,'kVSub230    ',38.0,1,0.0,0.0,1,1,1.0187539853,-9.2398486656,1
89,'kVSub54     ',38.0,1,0.0,0.0,1,1,1.0187548124,-9.2398440291,1
90,'kVSub100    ',38.0,1,0.0,0.0,1,1,1.0187549326,-9.2398460654,1
91,'kVSub260    ',38.0,1,0.0,0.0,1,1,1.0187531177,-9.2402882414,1
92,'kVSub53     ',38.0,1,0.0,0.0,1,1,1.0033174067,-10.9672354065,1
93,'kVSub2      ',38.0,2,0.0,0.0,1,1,0.9917448226,-11.7343792969,1
94,'kVSub58     ',38.0,2,0.0,0.0,1,1,1.0187548143,-9.2398443011,1
95,'kVSub178    ',38.0,1,0.0,0.0,1,1,1.0187524265,-9.2404699844,1
96,'kVSub70     ',38.0,1,0.0,0.0,1,1,1.0187549287,-9.2398452942,1
97,'kVSub1      ',38.0,2,0.0,0.0,1,1,0.9901899364,-10.899961788,1
98,'kVSub101    ',38.0,1,0.0,0.0,1,1,1.0187540067,-9.2398412126,1
99,'kVSub103    ',38.0,1,0.0,0.0,1,1,1.0187543808,-9.2398492735,1
100,'kVSub104    ',38.0,1,0.0,0.0,1,1,1.0187548196,-9.2398514,1
101,'kVSub105    ',38.0,1,0.0,0.0,1,1,1.0187548157,-9.2398512276,1
102,'kVSub107    ',38.0,1,0.0,0.0,1,1,1.0187542084,-9.2398773084,1
103,'kVSub108    ',38.0,1,0.0,0.0,1,1,1.0187542055,-9.2398778037,1
104,'kVSub109    ',38.0,1,0.0,0.0,1,1,0.9917446875,-11.7343875397,1
105,'kVSub11     ',38.0,1,0.0,0.0,1,1,1.0187546428,-9.2399174679,1
106,'kVSub110    ',38.0,1,0.0,0.0,1,1,0.9917446897,-11.7343871443,1
107,'kVSub111    ',38.0,1,0.0,0.0,1,1,0.9917446874,-11.7343875418,1
108,'kVSub112    ',38.0,1,0.0,0.0,1,1,0.9917446877,-11.7343875045,1
109,'kVSub113    ',38.0,1,0.0,0.0,1,1,0.9917446899,-11.7343871082,1
110,'kVSub114    ',38.0,1,0.0,0.0,1,1,0.9917446897,-11.7343871443,1
111,'kVSub115    ',38.0,1,0.0,0.0,1,1,1.0187542759,-9.2398695669,1
112,'kVSub116    ',38.0,1,0.0,0.0,1,1,1.0,0.0,1
113,'kVSub117    ',38.0,1,0.0,0.0,1,1,1.0,0.0,1
114,'kVSub118    ',38.0,1,0.0,0.0,1,1,1.0187548121,-9.2398437044,1
115,'kVSub120    ',38.0,1,0.0,0.0,1,1,1.0187548121,-9.2398437044,1
116,'kVSub121    ',38.0,1,0.0,0.0,1,1,1.0187548121,-9.2398437009,1
117,'kVSub122    ',38.0,1,0.0,0.0,1,1,1.0187548114,-9.2398438184,1
118,'kVSub123    ',38.0,2,0.0,0.0,1,1,1.0187548009,-9.239843723,1
119,'kVSub126    ',38.0,1,0.0,0.0,1,1,1.0187525444,-9.2404365094,1
120,'kVSub127    ',38.0,1,0.0,0.0,1,1,1.0187525427,-9.2404368025,1
121,'kVSub128    ',38.0,2,0.0,0.0,1,1,1.0,0.0,1
122,'kVSub129    ',38.0,1,0.0,0.0,1,1,1.0187542189,-9.2397560624,1
123,'kVSub13     ',38.0,1,0.0,0.0,1,1,1.018754741,-9.2398503668,1
124,'kVSub130    ',38.0,1,0.0,0.0,1,1,1.0187484638,-9.2393322868,1
125,'kVSub131    ',38.0,1,0.0,0.0,1,1,1.0187549536,-9.2397864209,1
126,'kVSub132    ',38.0,1,0.0,0.0,1,1,1.0187533406,-9.2402261637,1
127,'kVSub133    ',38.0,1,0.0,0.0,1,1,1.0187547226,-9.2397915873,1
128,'kVSub134    ',38.0,1,0.0,0.0,1,1,1.0187482485,-9.239308392,1
129,'kVSub135    ',38.0,2,0.0,0.0,1,1,0.9901899612,-10.8999587864,1
130,'kVSub137    ',38.0,1,0.0,0.0,1,1,1.0187502133,-9.2394677594,1
131,'kVSub138    ',38.0,1,0.0,0.0,1,1,1.0187546999,-9.2397954768,1
132,'kVSub14     ',38.0,1,0.0,0.0,1,1,1.0,0.0,1
133,'kVSub140    ',38.0,2,0.0,0.0,1,1,0.9901899605,-10.8999587165,1
134,'kVSub141    ',38.0,1,0.0,0.0,1,1,1.018754532,-9.2398241993,1
135,'kVSub143    ',38.0,1,0.0,0.0,1,1,0.9950700481,-12.0384510113,1
136,'kVSub144    ',38.0,1,0.0,0.0,1,1,1.0187481758,-9.2393104579,1
137,'kVSub145    ',38.0,1,0.0,0.0,1,1,1.018754544,-9.2398221477,1
138,'kVSub147    ',38.0,2,0.0,0.0,1,1,1.0174736211,-13.0183869841,1
139,'kVSub148    ',38.0,1,0.0,0.0,1,1,1.0187482544,-9.2393073955,1
140,'kVSub149    ',38.0,1,0.0,0.0,1,1,1.0187482496,-9.2393082161,1
141,'kVSub150    ',38.0,2,0.0,0.0,1,1,0.990189946,-10.8999600983,1
142,'kVSub151    ',38.0,1,0.0,0.0,1,1,1.0187523955,-9.2404699591,1
143,'kVSub152    ',38.0,1,0.0,0.0,1,1,1.0187482502,-9.2393080989,1
144,'kVSub153    ',38.0,1,0.0,0.0,1,1,0.9615275731,-16.6157302582,1
145,'kVSub154    ',38.0,1,0.0,0.0,1,1,1.018754556,-9.2398200965,1
146,'kVSub155    ',38.0,1,0.0,0.0,1,1,0.990189958,-10.8999589721,1
147,'kVSub156    ',38.0,1,0.0,0.0,1,1,1.0187548704,-9.2398382382,1
148,'kVSub157    ',38.0,1,0.0,0.0,1,1,0.9901899539,-10.8999593258,1
149,'kVSub158    ',38.0,1,0.0,0.0,1,1,0.9901899594,-10.8999587166,1
150,'kVSub159    ',38.0,2,0.0,0.0,1,1,0.9901899447,-10.8999596161,1
151,'kVSub16     ',38.0,1,0.0,0.0,1,1,1.0,0.0,1
152,'kVSub161    ',38.0,1,0.0,0.0,1,1,0.9901899427,-10.8999596162,1
153,'kVSub162    ',38.0,1,0.0,0.0,1,1,0.9901899399,-10.8999600988,1
154,'kVSub163    ',38.0,1,0.0,0.0,1,1,0.9901899542,-10.8999591974,1
155,'kVSub164    ',38.0,1,0.0,0.0,1,1,1.0187482537,-9.2393075127,1
156,'kVSub166    ',38.0,1,0.0,0.0,1,1,1.0187522397,-9.2404966299,1
157,'kVSub168    ',38.0,1,0.0,0.0,1,1,1.0187547778,-9.2398526147,1
158,'kVSub169    ',38.0,1,0.0,0.0,1,1,1.0187548121,-9.2398437044,1
159,'kVSub17     ',38.0,1,0.0,0.0,1,1,1.0187548157,-9.2398512248,1
160,'kVSub170    ',38.0,1,0.0,0.0,1,1,1.0187547961,-9.239834182,1
161,'kVSub171    ',38.0,1,0.0,0.0,1,1,1.0187522349,-9.2404974505,1
162,'kVSub172    ',38.0,1,0.0,0.0,1,1,1.0187522349,-9.2404974505,1
163,'kVSub173    ',38.0,1,0.0,0.0,1,1,1.0187523116,-9.2404843203,1
164,'kVSub174    ',38.0,2,0.0,0.0,1,1,0.9901899832,-10.8999581247,1
165,'kVSub175    ',38.0,1,0.0,0.0,1,1,1.0187522437,-9.240495946,1
166,'kVSub176    ',38.0,1,0.0,0.0,1,1,1.0187522397,-9.2404966299,1
167,'kVSub177    ',38.0,1,0.0,0.0,1,1,1.0187524349,-9.2404632181,1
168,'kVSub179    ',38.0,1,0.0,0.0,1,1,1.0187535425,-9.2401733857,1
169,'kVSub18     ',38.0,1,0.0,0.0,1,1,1.0,0.0,1
170,'kVSub180    ',38.0,1,0.0,0.0,1,1,1.0187547226,-9.2397915873,1
171,'kVSub181    ',38.0,1,0.0,0.0,1,1,0.9615277113,-16.6157089152,1
172,'kVSub183    ',38.0,1,0.0,0.0,1,1,0.9901899427,-10.8999596162,1
173,'kVSub184    ',38.0,1,0.0,0.0,1,1,1.0187524384,-9.240462632,1
174,'kVSub185    ',38.0,1,0.0,0.0,1,1,1.0187522637,-9.2404925267,1
175,'kVSub186    ',38.0,1,0.0,0.0,1,1,1.0,0.0,1
176,'kVSub187    ',38.0,1,0.0,0.0,1,1,1.0,0.0,1
177,'kVSub188    ',38.0,1,0.0,0.0,1,1,1.0,0.0,1
178,'kVSub189    ',38.0,1,0.0,0.0,1,1,0.9619189104,-10.5540258494,1
179,'kVSub190    ',38.0,1,0.0,0.0,1,1,1.0187522437,-9.240495946,1
180,'kVSub191    ',38.0,1,0.0,0.0,1,1,1.0,0.0,1
181,'kVSub193    ',38.0,1,0.0,0.0,1,1,1.0,0.0,1
182,'kVSub194    ',38.0,1,0.0,0.0,1,1,1.0,0.0,1
183,'kVSub195    ',38.0,1,0.0,0.0,1,1,1.0,0.0,1
184,'kVSub196    ',38.0,1,0.0,0.0,1,1,0.9619189096,-10.5540260028,1
185,'kVSub197    ',38.0,1,0.0,0.0,1,1,1.018754532,-9.2398241993,1
186,'kVSub198    ',38.0,2,0.0,0.0,1,1,0.9901899392,-10.8999665968,1
187,'kVSub20     ',38.0,1,0.0,0.0,1,1,1.0187548157,-9.2398512276,1
188,'kVSub200    ',38.0,1,0.0,0.0,1,1,1.0187522437,-9.240495946,1
189,'kVSub203    ',38.0,1,0.0,0.0,1,1,0.9950700558,-12.0384496673,1
190,'kVSub204    ',38.0,1,0.0,0.0,1,1,1.0187524384,-9.240462632,1
191,'kVSub205    ',38.0,2,0.0,0.0,1,1,1.0187525457,-9.2404364384,1
192,'kVSub206    ',38.0,2,0.0,0.0,1,1,1.0187548126,-9.2398437044,1
193,'kVSub207    ',38.0,1,0.0,0.0,1,1,1.0174736183,-13.0183871852,1
194,'kVSub208    ',38.0,1,0.0,0.0,1,1,1.0187531944,-9.2402655301,1
195,'kVSub209    ',38.0,1,0.0,0.0,1,1,1.0187533406,-9.2402261637,1
196,'kVSub210    ',38.0,2,0.0,0.0,1,1,0.9901899584,-10.8999611688,1
197,'kVSub211    ',38.0,1,0.0,0.0,1,1,0.9901899594,-10.8999587166,1
198,'kVSub212    ',38.0,1,0.0,0.0,1,1,0.9901899594,-10.8999587166,1
199,'kVSub213    ',38.0,1,0.0,0.0,1,1,0.9615275985,-16.6157298346,1
200,'kVSub214    ',38.0,1,0.0,0.0,1,1,1.0174736186,-13.0183871264,1
...
0 / END OF BUS DATA, BEGIN LOAD DATA
62,' C',1,1,1,6.3887612707,2.0998842815,0.0,0.0,0.0,0.0,1
62,' I',1,1,1,29.8142192634,9.7994599802,0.0,0.0,0.0,0.0,1
62,' P',1,1,1,6.3887612707,2.0998842815,0.0,0.0,0.0,0.0,1
63,' C',1,1,1,3.1402522837,1.0321510119,0.0,0.0,0.0,0.0,1
63,' I',1,1,1,14.6545106572,4.8167047222,0.0,0.0,0.0,0.0,1
63,' P',1,1,1,3.1402522837,1.0321510119,0.0,0.0,0.0,0.0,1
64,' C',1,1,1,6.3887612707,2.0998842815,0.0,0.0,0.0,0.0,1
64,' I',1,1,1,29.8142192634,9.7994599802,0.0,0.0,0.0,0.0,1
64,' P',1,1,1,6.3887612707,2.0998842815,0.0,0.0,0.0,0.0,1
65,' C',1,1,1,6.3887612707,2.0998842815,0.0,0.0,0.0,0.0,1
65,' I',1,1,1,29.8142192634,9.7994599802,0.0,0.0,0.0,0.0,1
65,' P',1,1,1,6.3887612707,2.0998842815,0.0,0.0,0.0,0.0,1
66,' C',1,1,1,3.1402522837,1.0321510119,0.0,0.0,0.0,0.0,1
66,' I',1,1,1,14.6545106572,4.8167047222,0.0,0.0,0.0,0.0,1
66,' P',1,1,1,3.1402522837,1.0321510119,0.0,0.0,0.0,0.0,1
67,' C',1,1,1,3.1402522837,1.0321510119,0.0,0.0,0.0,0.0,1
67,' I',1,1,1,14.6545106572,4.8167047222,0.0,0.0,0.0,0.0,1
67,' P',1,1,1,3.1402522837,1.0321510119,0.0,0.0,0.0,0.0,1
68,' C',1,1,1,6.3887612707,2.0998842815,0.0,0.0,0.0,0.0,1
68,' I',1,1,1,29.8142192634,9.7994599802,0.0,0.0,0.0,0.0,1
68,' P',1,1,1,6.3887612707,2.0998842815,0.0,0.0,0.0,0.0,1
69,' C',1,1,1,3.1402522837,1.0321510119,0.0,0.0,0.0,0.0,1
69,' I',1,1,1,14.6545106572,4.8167047222,0.0,0.0,0.0,0.0,1
69,' P',1,1,1,3.1402522837,1.0321510119,0.0,0.0,0.0,0.0,1
70,' C',1,1,1,6.3887612707,2.0998842815,0.0,0.0,0.0,0.0,1
70,' I',1,1,1,29.8142192634,9.7994599802,0.0,0.0,0.0,0.0,1
70,' P',1,1,1,6.3887612707,2.0998842815,0.0,0.0,0.0,0.0,1
71,' C',1,1,1,3.1402522837,1.0321510119,0.0,0.0,0.0,0.0,1
71,' I',1,1,1,14.6545106572,4.8167047222,0.0,0.0,0.0,0.0,1
71,' P',1,1,1,3.1402522837,1.0321510119,0.0,0.0,0.0,0.0,1
72,' C',1,1,1,3.1402522837,1.0321510119,0.0,0.0,0.0,0.0,1
72,' I',1,1,1,14.6545106572,4.8167047222,0.0,0.0,0.0,0.0,1
72,' P',1,1,1,3.1402522837,1.0321510119,0.0,0.0,0.0,0.0,1
73,' C',1,1,1,6.3887612707,2.0998842815,0.0,0.0,0.0,0.0,1
73,' I',1,1,1,29.8142192634,9.7994599802,0.0,0.0,0.0,0.0,1
73,' P',1,1,1,6.3887612707,2.0998842815,0.0,0.0,0.0,0.0,1
74,' C',1,1,1,6.3887612707,2.0998842815,0.0,0.0,0.0,0.0,1
74,' I',1,1,1,29.8142192634,9.7994599802,0.0,0.0,0.0,0.0,1
74,' P',1,1,1,6.3887612707,2.0998842815,0.0,0.0,0.0,0.0,1
75,' C',1,1,1,6.3887612707,2.0998842815,0.0,0.0,0.0,0.0,1
75,' I',1,1,1,29.8142192634,9.7994599802,0.0,0.0,0.0,0.0,1
75,' P',1,1,1,6.3887612707,2.0998842815,0.0,0.0,0.0,0.0,1
76,' C',1,1,1,6.3887612707,2.0998842815,0.0,0.0,0.0,0.0,1
76,' I',1,1,1,29.8142192634,9.7994599802,0.0,0.0,0.0,0.0,1
76,' P',1,1,1,6.3887612707,2.0998842815,0.0,0.0,0.0,0.0,1
77,' C',1,1,1,6.3887612707,2.0998842815,0.0,0.0,0.0,0.0,1
77,' I',1,1,1,29.8142192634,9.7994599802,0.0,0.0,0.0,0.0,1
77,' P',1,1,1,6.3887612707,2.0998842815,0.0,0.0,0.0,0.0,1
78,' C',1,1,1,6.3887612707,2.0998842815,0.0,0.0,0.0,0.0,1
78,' I',1,1,1,29.8142192634,9.7994599802,0.0,0.0,0.0,0.0,1
78,' P',1,1,1,6.3887612707,2.0998842815,0.0,0.0,0.0,0.0,1
79,' C',1,1,1,6.3887612707,2.0998842815,0.0,0.0,0.0,0.0,1
79,' I',1,1,1,29.8142192634,9.7994599802,0.0,0.0,0.0,0.0,1
79,' P',1,1,1,6.3887612707,2.0998842815,0.0,0.0,0.0,0.0,1
80,' C',1,1,1,6.3887612707,2.0998842815,0.0,0.0,0.0,0.0,1
80,' I',1,1,1,29.8142192634,9.7994599802,0.0,0.0,0.0,0.0,1
80,' P',1,1,1,6.3887612707,2.0998842815,0.0,0.0,0.0,0.0,1
81,' C',1,1,1,6.3887612707,2.0998842815,0.0,0.0,0.0,0.0,1
81,' I',1,1,1,29.8142192634,9.7994599802,0.0,0.0,0.0,0.0,1
81,' P',1,1,1,6.3887612707,2.0998842815,0.0,0.0,0.0,0.0,1
82,' C',1,1,1,6.3887612707,2.0998842815,0.0,0.0,0.0,0.0,1
82,' I',1,1,1,29.8142192634,9.7994599802,0.0,0.0,0.0,0.0,1
82,' P',1,1,1,6.3887612707,2.0998842815,0.0,0.0,0.0,0.0,1
83,' C',1,1,1,3.1402522837,1.0321510119,0.0,0.0,0.0,0.0,1
83,' I',1,1,1,14.6545106572,4.8167047222,0.0,0.0,0.0,0.0,1
83,' P',1,1,1,3.1402522837,1.0321510119,0.0,0.0,0.0,0.0,1
84,' C',1,1,1,6.3887612707,2.0998842815,0.0,0.0,0.0,0.0,1
84,' I',1,1,1,29.8142192634,9.7994599802,0.0,0.0,0.0,0.0,1
84,' P',1,1,1,6.3887612707,2.0998842815,0.0,0.0,0.0,0.0,1
85,' C',1,1,1,3.1402522837,1.0321510119,0.0,0.0,0.0,0.0,1
85,' I',1,1,1,14.6545106572,4.8167047222,0.0,0.0,0.0,0.0,1
85,' P',1,1,1,3.1402522837,1.0321510119,0.0,0.0,0.0,0.0,1
86,' C',1,1,1,3.1402522837,1.0321510119,0.0,0.0,0.0,0.0,1
86,' I',1,1,1,14.6545106572,4.8167047222,0.0,0.0,0.0,0.0,1
86,' P',1,1,1,3.1402522837,1.0321510119,0.0,0.0,0.0,0.0,1
87,' C',1,1,1,3.1402522837,1.0321510119,0.0,0.0,0.0,0.0,1
87,' I',1,1,1,14.6545106572,4.8167047222,0.0,0.0,0.0,0.0,1
87,' P',1,1,1,3.1402522837,1.0321510119,0.0,0.0,0.0,0.0,1
88,' C',1,1,1,3.1402522837,1.0321510119,0.0,0.0,0.0,0.0,1
88,' I',1,1,1,14.6545106572,4.8167047222,0.0,0.0,0.0,0.0,1
88,' P',1,1,1,3.1402522837,1.0321510119,0.0,0.0,0.0,0.0,1
89,' C',1,1,1,3.1402522837,1.0321510119,0.0,0.0,0.0,0.0,1
89,' I',1,1,1,14.6545106572,4.8167047222,0.0,0.0,0.0,0.0,1
89,' P',1,1,1,3.1402522837,1.0321510119,0.0,0.0,0.0,0.0,1
90,' C',1,1,1,6.3887612707,2.0998842815,0.0,0.0,0.0,0.0,1
90,' I',1,1,1,29.8142192634,9.7994599802,0.0,0.0,0.0,0.0,1
90,' P',1,1,1,6.3887612707,2.0998842815,0.0,0.0,0.0,0.0,1
91,' C',1,1,1,3.1402522837,1.0321510119,0.0,0.0,0.0,0.0,1
91,' I',1,1,1,14.6545106572,4.8167047222,0.0,0.0,0.0,0.0,1
91,' P',1,1,1,3.1402522837,1.0321510119,0.0,0.0,0.0,0.0,1
92,' C',1,1,1,3.1402522837,1.0321510119,0.0,0.0,0.0,0.0,1
92,' I',1,1,1,14.6545106572,4.8167047222,0.0,0.0,0.0,0.0,1
92,' P',1,1,1,3.1402522837,1.0321510119,0.0,0.0,0.0,0.0,1
93,' C',1,1,1,6.3887612707,2.0998842815,0.0,0.0,0.0,0.0,1
93,' I',1,1,1,29.8142192634,9.7994599802,0.0,0.0,0.0,0.0,1
93,' P',1,1,1,6.3887612707,2.0998842815,0.0,0.0,0.0,0.0,1
94,' C',1,1,1,6.3887612707,2.0998842815,0.0,0.0,0.0,0.0,1
94,' I',1,1,1,29.8142192634,9.7994599802,0.0,0.0,0.0,0.0,1
94,' P',1,1,1,6.3887612707,2.0998842815,0.0,0.0,0.0,0.0,1
95,' C',1,1,1,6.3887612707,2.0998842815,0.0,0.0,0.0,0.0,1
95,' I',1,1,1,29.8142192634,9.7994599802,0.0,0.0,0.0,0.0,1
95,' P',1,1,1,6.3887612707,2.0998842815,0.0,0.0,0.0,0.0,1
96,' C',1,1,1,3.1402522837,1.0321510119,0.0,0.0,0.0,0.0,1
96,' I',1,1,1,14.6545106572,4.8167047222,0.0,0.0,0.0,0.0,1
96,' P',1,1,1,3.1402522837,1.0321510119,0.0,0.0,0.0,0.0,1
97,' C',1,1,1,1.6723237014,0.5496662194,0.0,0.0,0.0,0.0,1
97,' I',1,1,1,7.8041772731,2.5651090237,0.0,0.0,0.0,0.0,1
97,' P',1,1,1,1.6723237014,0.5496662194,0.0,0.0,0.0,0.0,1
98,' C',1,1,1,1.6723237014,0.5496662194,0.0,0.0,0.0,0.0,1
98,' I',1,1,1,7.8041772731,2.5651090237,0.0,0.0,0.0,0.0,1
98,' P',1,1,1,1.6723237014,0.5496662194,0.0,0.0,0.0,0.0,1
99,' C',1,1,1,1.6723237014,0.5496662194,0.0,0.0,0.0,0.0,1
99,' I',1,1,1,7.8041772731,2.5651090237,0.0,0.0,0.0,0.0,1
99,' P',1,1,1,1.6723237014,0.5496662194,0.0,0.0,0.0,0.0,1
100,' C',1,1,1,1.6723237014,0.5496662194,0.0,0.0,0.0,0.0,1
100,' I',1,1,1,7.8041772731,2.5651090237,0.0,0.0,0.0,0.0,1
100,' P',1,1,1,1.6723237014,0.5496662194,0.0,0.0,0.0,0.0,1
101,' C',1,1,1,0.5574412338,0.1832220731,0.0,0.0,0.0,0.0,1
101,' I',1,1,1,2.6013924244,0.8550363412,0.0,0.0,0.0,0.0,1
101,' P',1,1,1,0.5574412338,0.1832220731,0.0,0.0,0.0,0.0,1
102,' C',1,1,1,0.5574412338,0.1832220731,0.0,0.0,0.0,0.0,1
102,' I',1,1,1,2.6013924244,0.8550363412,0.0,0.0,0.0,0.0,1
102,' P',1,1,1,0.5574412338,0.1832220731,0.0,0.0,0.0,0.0,1
103,' C',1,1,1,1.6723237014,0.5496662194,0.0,0.0,0.0,0.0,1
103,' I',1,1,1,7.8041772731,2.5651090237,0.0,0.0,0.0,0.0,1
103,' P',1,1,1,1.6723237014,0.5496662194,0.0,0.0,0.0,0.0,1
104,' C',1,1,1,1.6723237014,0.5496662194,0.0,0.0,0.0,0.0,1
104,' I',1,1,1,7.8041772731,2.5651090237,0.0,0.0,0.0,0.0,1
104,' P',1,1,1,1.6723237014,0.5496662194,0.0,0.0,0.0,0.0,1
105,' C',1,1,1,1.6723237014,0.5496662194,0.0,0.0,0.0,0.0,1
105,' I',1,1,1,7.8041772731,2.5651090237,0.0,0.0,0.0,0.0,1
105,' P',1,1,1,1.6723237014,0.5496662194,0.0,0.0,0.0,0.0,1
106,' C',1,1,1,0.5574412338,0.1832220731,0.0,0.0,0.0,0.0,1
106,' I',1,1,1,2.6013924244,0.8550363412,0.0,0.0,0.0,0.0,1
106,' P',1,1,1,0.5574412338,0.1832220731,0.0,0.0,0.0,0.0,1
107,' C',1,1,1,1.6723237014,0.5496662194,0.0,0.0,0.0,0.0,1
107,' I',1,1,1,7.8041772731,2.5651090237,0.0,0.0,0.0,0.0,1
107,' P',1,1,1,1.6723237014,0.5496662194,0.0,0.0,0.0,0.0,1
108,' C',1,1,1,1.6723237014,0.5496662194,0.0,0.0,0.0,0.0,1
108,' I',1,1,1,7.8041772731,2.5651090237,0.0,0.0,0.0,0.0,1
108,' P',1,1,1,1.6723237014,0.5496662194,0.0,0.0,0.0,0.0,1
109,' C',1,1,1,0.5574412338,0.1832220731,0.0,0.0,0.0,0.0,1
109,' I',1,1,1,2.6013924244,0.8550363412,0.0,0.0,0.0,0.0,1
109,' P',1,1,1,0.5574412338,0.1832220731,0.0,0.0,0.0,0.0,1
110,' C',1,1,1,0.5574412338,0.1832220731,0.0,0.0,0.0,0.0,1
110,' I',1,1,1,2.6013924244,0.8550363412,0.0,0.0,0.0,0.0,1
110,' P',1,1,1,0.5574412338,0.1832220731,0.0,0.0,0.0,0.0,1
111,' C',1,1,1,0.5574412338,0.1832220731,0.0,0.0,0.0,0.0,1
111,' I',1,1,1,2.6013924244,0.8550363412,0.0,0.0,0.0,0.0,1
111,' P',1,1,1,0.5574412338,0.1832220731,0.0,0.0,0.0,0.0,1
112,' C',1,1,1,0.5574412338,0.1832220731,0.0,0.0,0.0,0.0,1
112,' I',1,1,1,2.6013924244,0.8550363412,0.0,0.0,0.0,0.0,1
112,' P',1,1,1,0.5574412338,0.1832220731,0.0,0.0,0.0,0.0,1
113,' C',1,1,1,1.6723237014,0.5496662194,0.0,0.0,0.0,0.0,1
113,' I',1,1,1,7.8041772731,2.5651090237,0.0,0.0,0.0,0.0,1
113,' P',1,1,1,1.6723237014,0.5496662194,0.0,0.0,0.0,0.0,1
114,' C',1,1,1,0.5574412338,0.1832220731,0.0,0.0,0.0,0.0,1
114,' I',1,1,1,2.6013924244,0.8550363412,0.0,0.0,0.0,0.0,1
114,' P',1,1,1,0.5574412338,0.1832220731,0.0,0.0,0.0,0.0,1
115,' C',1,1,1,0.5574412338,0.1832220731,0.0,0.0,0.0,0.0,1
115,' I',1,1,1,2.6013924244,0.8550363412,0.0,0.0,0.0,0.0,1
115,' P',1,1,1,0.5574412338,0.1832220731,0.0,0.0,0.0,0.0,1
116,' C',1,1,1,0.5574412338,0.1832220731,0.0,0.0,0.0,0.0,1
116,' I',1,1,1,2.6013924244,0.8550363412,0.0,0.0,0.0,0.0,1
116,' P',1,1,1,0.5574412338,0.1832220731,0.0,0.0,0.0,0.0,1
117,' C',1,1,1,1.6723237014,0.5496662194,0.0,0.0,0.0,0.0,1
117,' I',1,1,1,7.8041772731,2.5651090237,0.0,0.0,0.0,0.0,1
117,' P',1,1,1,1.6723237014,0.5496662194,0.0,0.0,0.0,0.0,1
118,' C',1,1,1,0.5574412338,0.1832220731,0.0,0.0,0.0,0.0,1
118,' I',1,1,1,2.6013924244,0.8550363412,0.0,0.0,0.0,0.0,1
118,' P',1,1,1,0.5574412338,0.1832220731,0.0,0.0,0.0,0.0,1
119,' C',1,1,1,0.5574412338,0.1832220731,0.0,0.0,0.0,0.0,1
119,' I',1,1,1,2.6013924244,0.8550363412,0.0,0.0,0.0,0.0,1
119,' P',1,1,1,0.5574412338,0.1832220731,0.0,0.0,0.0,0.0,1
120,' C',1,1,1,1.6723237014,0.5496662194,0.0,0.0,0.0,0.0,1
120,' I',1,1,1,7.8041772731,2.5651090237,0.0,0.0,0.0,0.0,1
120,' P',1,1,1,1.6723237014,0.5496662194,0.0,0.0,0.0,0.0,1
121,' C',1,1,1,1.6723237014,0.5496662194,0.0,0.0,0.0,0.0,1
121,' I',1,1,1,7.8041772731,2.5651090237,0.0,0.0,0.0,0.0,1
121,' P',1,1,1,1.6723237014,0.5496662194,0.0,0.0,0.0,0.0,1
122,' C',1,1,1,1.6723237014,0.5496662194,0.0,0.0,0.0,0.0,1
122,' I',1,1,1,7.8041772731,2.5651090237,0.0,0.0,0.0,0.0,1
122,' P',1,1,1,1.6723237014,0.5496662194,0.0,0.0,0.0,0.0,1
123,' C',1,1,1,0.5574412338,0.1832220731,0.0,0.0,0.0,0.0,1
123,' I',1,1,1,2.6013924244,0.8550363412,0.0,0.0,0.0,0.0,1
123,' P',1,1,1,0.5574412338,0.1832220731,0.0,0.0,0.0,0.0,1
124,' C',1,1,1,0.5574412338,0.1832220731,0.0,0.0,0.0,0.0,1
124,' I',1,1,1,2.6013924244,0.8550363412,0.0,0.0,0.0,0.0,1
124,' P',1,1,1,0.5574412338,0.1832220731,0.0,0.0,0.0,0.0,1
125,' C',1,1,1,0.5574412338,0.1832220731,0.0,0.0,0.0,0.0,1
125,' I',1,1,1,2.6013924244,0.8550363412,0.0,0.0,0.0,0.0,1
125,' P',1,1,1,0.5574412338,0.1832220731,0.0,0.0,0.0,0.0,1
126,' C',1,1,1,0.5574412338,0.1832220731,0.0,0.0,0.0,0.0,1
126,' I',1,1,1,2.6013924244,0.8550363412,0.0,0.0,0.0,0.0,1
126,' P',1,1,1,0.5574412338,0.1832220731,0.0,0.0,0.0,0.0,1
127,' C',1,1,1,0.5574412338,0.1832220731,0.0,0.0,0.0,0.0,1
127,' I',1,1,1,2.6013924244,0.8550363412,0.0,0.0,0.0,0.0,1
127,' P',1,1,1,0.5574412338,0.1832220731,0.0,0.0,0.0,0.0,1
128,' C',1,1,1,1.6723237014,0.5496662194,0.0,0.0,0.0,0.0,1
128,' I',1,1,1,7.8041772731,2.5651090237,0.0,0.0,0.0,0.0,1
...
0 / END OF LOAD DATA, BEGIN GENERATOR DATA
30,' 1',843.82620075,-262.81702529,1092.0,-1092.0,0.9755923453,0,100.0,0.0,0.0,0.0,0.0,1.0,1,100.0,1092.0,0.0,1,1.0,0,1.0,0,1.0,0,1.0
46,' 1',19.99993128,13.95222305,20.0,-20.0,1.008045673,0,100.0,0.0,0.0,0.0,0.0,1.0,1,100.0,20.0,0.0,1,1.0,0,1.0,0,1.0,0,1.0
62,' 1',20.62796447,20.64183414,20.6295652174,20.6295652174,1.0181378184,0,100.0,0.0,0.0,0.0,0.0,1.0,1,100.0,20.6295652174,0.0,1,1.0,0,1.0,0,1.0,0,1.0
67,' 1',0.01322671,10.1406928,10.14,10.14,1.0187543818,0,100.0,0.0,0.0,0.0,0.0,1.0,1,100.0,10.14,0.0,1,1.0,0,1.0,0,1.0,0,1.0
68,' 1',20.60630684,20.66656375,20.6295652174,20.6295652174,0.9917448812,0,100.0,0.0,0.0,0.0,0.0,1.0,1,100.0,20.6295652174,0.0,1,1.0,0,1.0,0,1.0,0,1.0
69,' 1',0.07993184,-80.68806105,1358.0,-1358.0,0.9917447092,0,100.0,0.0,0.0,0.0,0.0,1.0,1,100.0,1358.0,0.0,1,1.0,0,1.0,0,1.0,0,1.0
71,' 1',0.01552354,10.14975498,10.14,10.14,0.9901899905,0,100.0,0.0,0.0,0.0,0.0,1.0,1,100.0,10.14,0.0,1,1.0,0,1.0,0,1.0,0,1.0
84,' 1',0.02841558,20.6327652,20.6295652174,20.6295652174,0.9901899788,0,100.0,0.0,0.0,0.0,0.0,1.0,1,100.0,20.6295652174,0.0,1,1.0,0,1.0,0,1.0,0,1.0
87,' 1',0.01297559,10.13941386,10.14,10.14,1.0187548103,0,100.0,0.0,0.0,0.0,0.0,1.0,1,100.0,10.14,0.0,1,1.0,0,1.0,0,1.0,0,1.0
93,' 1',5.00472832,-4.96459158,5.0,-5.0,0.9917448226,0,100.0,0.0,0.0,0.0,0.0,1.0,1,100.0,5.0,0.0,1,1.0,0,1.0,0,1.0,0,1.0
94,' 1',20.63014031,20.62945226,20.6295652174,20.6295652174,1.0187548143,0,100.0,0.0,0.0,0.0,0.0,1.0,1,100.0,20.6295652174,0.0,1,1.0,0,1.0,0,1.0,0,1.0
97,' 1',0.01479752,-11.00000634,11.0,-11.0,0.9901899364,0,100.0,0.0,0.0,0.0,0.0,1.0,1,100.0,11.0,0.0,1,1.0,0,1.0,0,1.0,0,1.0
118,' 1',0.00230846,1.79961372,1.8,1.8,1.0187548009,0,100.0,0.0,0.0,0.0,0.0,1.0,1,100.0,1.8,0.0,1,1.0,0,1.0,0,1.0,0,1.0
121,' 1',0.0,0.0,5.4,5.4,1.0,0,100.0,0.0,0.0,0.0,0.0,1.0,1,100.0,5.4,0.0,1,1.0,0,1.0,0,1.0,0,1.0
129,' 1',5.39997596,5.40003184,5.4,5.4,0.9901899612,0,100.0,0.0,0.0,0.0,0.0,1.0,1,100.0,5.4,0.0,1,1.0,0,1.0,0,1.0,0,1.0
133,' 1',0.00251493,1.79994848,1.8,1.8,0.9901899605,0,100.0,0.0,0.0,0.0,0.0,1.0,1,100.0,1.8,0.0,1,1.0,0,1.0,0,1.0,0,1.0
138,' 1',1.79999659,1.80006082,1.8,1.8,1.0174736211,0,100.0,0.0,0.0,0.0,0.0,1.0,1,100.0,1.8,0.0,1,1.0,0,1.0,0,1.0,0,1.0
141,' 1',0.00725865,5.39997694,5.4,5.4,0.990189946,0,100.0,0.0,0.0,0.0,0.0,1.0,1,100.0,5.4,0.0,1,1.0,0,1.0,0,1.0,0,1.0
150,' 1',0.00242448,1.79999319,1.8,1.8,0.9901899447,0,100.0,0.0,0.0,0.0,0.0,1.0,1,100.0,1.8,0.0,1,1.0,0,1.0,0,1.0,0,1.0
164,' 1',0.00728503,5.40003126,5.4,5.4,0.9901899832,0,100.0,0.0,0.0,0.0,0.0,1.0,1,100.0,5.4,0.0,1,1.0,0,1.0,0,1.0,0,1.0
186,' 1',0.00242577,1.80002182,1.8,1.8,0.9901899392,0,100.0,0.0,0.0,0.0,0.0,1.0,1,100.0,1.8,0.0,1,1.0,0,1.0,0,1.0,0,1.0
191,' 1',1.80002206,1.79990561,1.8,1.8,1.0187525457,0,100.0,0.0,0.0,0.0,0.0,1.0,1,100.0,1.8,0.0,1,1.0,0,1.0,0,1.0,0,1.0
192,' 1',0.00227141,1.79983625,1.8,1.8,1.0187548126,0,100.0,0.0,0.0,0.0,0.0,1.0,1,100.0,1.8,0.0,1,1.0,0,1.0,0,1.0,0,1.0
196,' 1',0.0000084,1.80000086,1.8,1.8,0.9901899584,0,100.0,0.0,0.0,0.0,0.0,1.0,1,100.0,1.8,0.0,1,1.0,0,1.0,0,1.0,0,1.0
202,' 1',0.00242118,1.80000809,1.8,1.8,0.9901899584,0,100.0,0.0,0.0,0.0,0.0,1.0,1,100.0,1.8,0.0,1,1.0,0,1.0,0,1.0,0,1.0
206,' 1',0.00233218,1.80018886,1.8,1.8,1.0187548126,0,100.0,0.0,0.0,0.0,0.0,1.0,1,100.0,1.8,0.0,1,1.0,0,1.0,0,1.0,0,1.0
207,' 1',0.0,0.0,5.4,5.4,1.0,0,100.0,0.0,0.0,0.0,0.0,1.0,1,100.0,5.4,0.0,1,1.0,0,1.0,0,1.0,0,1.0
208,' 1',0.0,0.0,1.8,1.8,1.0,0,100.0,0.0,0.0,0.0,0.0,1.0,1,100.0,1.8,0.0,1,1.0,0,1.0,0,1.0,0,1.0
209,' 1',0.0,0.0,1.8,1.8,1.0,0,100.0,0.0,0.0,0.0,0.0,1.0,1,100.0,1.8,0.0,1,1.0,0,1.0,0,1.0,0,1.0
210,' 1',0.00725544,5.39996961,5.4,5.4,0.990189946,0,100.0,0.0,0.0,0.0,0.0,1.0,1,100.0,5.4,0.0,1,1.0,0,1.0,0,1.0,0,1.0
224,' 1',0.00685786,5.40003276,5.4,5.4,1.0187548129,0,100.0,0.0,0.0,0.0,0.0,1.0,1,100.0,5.4,0.0,1,1.0,0,1.0,0,1.0,0,1.0
242,' 1',0.0000351,5.40006129,5.4,5.4,1.0187547109,0,100.0,0.0,0.0,0.0,0.0,1.0,1,100.0,5.4,0.0,1,1.0,0,1.0,0,1.0,0,1.0
249,' 1',0.0,0.0,1.8,1.8,1.0,0,100.0,0.0,0.0,0.0,0.0,1.0,1,100.0,1.8,0.0,1,1.0,0,1.0,0,1.0,0,1.0
264,' 1',0.00690152,5.39998387,5.4,5.4,1.0187548196,0,100.0,0.0,0.0,0.0,0.0,1.0,1,100.0,5.4,0.0,1,1.0,0,1.0,0,1.0,0,1.0
273,' 1',8.99996039,-8.98810754,9.0,-9.0,1.0187548093,0,100.0,0.0,0.0,0.0,0.0,1.0,1,100.0,9.0,0.0,1,1.0,0,1.0,0,1.0,0,1.0
280,' 1',9.99580354,2.7307515,18.0,-18.0,1.0074397481,0,100.0,0.0,0.0,0.0,0.0,1.0,1,100.0,18.0,0.0,1,1.0,0,1.0,0,1.0,0,1.0
282,' 1',5.40526844,5.40002773,5.4,5.4,1.0181378316,0,100.0,0.0,0.0,0.0,0.0,1.0,1,100.0,5.4,0.0,1,1.0,0,1.0,0,1.0,0,1.0
285,' 1',0.0,0.0,1.8,1.8,1.0,0,100.0,0.0,0.0,0.0,0.0,1.0,1,100.0,1.8,0.0,1,1.0,0,1.0,0,1.0,0,1.0
287,' 1',1.80175233,1.80000287,1.8,1.8,1.0181378267,0,100.0,0.0,0.0,0.0,0.0,1.0,1,100.0,1.8,0.0,1,1.0,0,1.0,0,1.0,0,1.0
308,' 1',0.00001638,5.39970757,5.4,5.4,1.0187549363,0,100.0,0.0,0.0,0.0,0.0,1.0,1,100.0,5.4,0.0,1,1.0,0,1.0,0,1.0,0,1.0
352,' 1',453.99941013,453.4206503,454.0,-454.0,1.018755062,0,100.0,0.0,0.0,0.0,0.0,1.0,1,100.0,454.0,0.0,1,1.0,0,1.0,0,1.0,0,1.0
358,' 1',5.40001583,5.40036583,5.4,5.4,1.0187548129,0,100.0,0.0,0.0,0.0,0.0,1.0,1,100.0,5.4,0.0,1,1.0,0,1.0,0,1.0,0,1.0
359,' 1',1.79771053,1.80005962,1.8,1.8,1.0187547087,0,100.0,0.0,0.0,0.0,0.0,1.0,1,100.0,1.8,0.0,1,1.0,0,1.0,0,1.0,0,1.0
360,' 1',1.7977036,1.80001551,1.8,1.8,1.0187547087,0,100.0,0.0,0.0,0.0,0.0,1.0,1,100.0,1.8,0.0,1,1.0,0,1.0,0,1.0,0,1.0
361,' 1',32.99992219,-32.95832326,33.0,-33.0,1.0187548024,0,100.0,0.0,0.0,0.0,0.0,1.0,1,100.0,33.0,0.0,1,1.0,0,1.0,0,1.0,0,1.0
365,' 1',1.79984643,1.80078066,1.8,1.8,1.0187548733,0,100.0,0.0,0.0,0.0,0.0,1.0,1,100.0,1.8,0.0,1,1.0,0,1.0,0,1.0,0,1.0
366,' 1',0.0000122,1.79927295,1.8,1.8,1.018754936,0,100.0,0.0,0.0,0.0,0.0,1.0,1,100.0,1.8,0.0,1,1.0,0,1.0,0,1.0,0,1.0
367,' 1',1.79773667,1.79982399,1.8,1.8,1.018754936,0,100.0,0.0,0.0,0.0,0.0,1.0,1,100.0,1.8,0.0,1,1.0,0,1.0,0,1.0,0,1.0
369,' 1',639.96105084,-379.72296856,640.0,-640.0,1.0187480676,0,100.0,0.0,0.0,0.0,0.0,1.0,1,100.0,640.0,0.0,1,1.0,0,1.0,0,1.0,0,1.0
373,' 1',5.40000281,5.40007355,5.4,5.4,1.0187548129,0,100.0,0.0,0.0,0.0,0.0,1.0,1,100.0,5.4,0.0,1,1.0,0,1.0,0,1.0,0,1.0
374,' 1',0.00234889,1.79972041,1.8,1.8,1.0187548127,0,100.0,0.0,0.0,0.0,0.0,1.0,1,100.0,1.8,0.0,1,1.0,0,1.0,0,1.0,0,1.0
379,' 1',90.80261348,-66.13813916,193.0,-193.0,0.9901899263,0,100.0,0.0,0.0,0.0,0.0,1.0,1,100.0,193.0,0.0,1,1.0,0,1.0,0,1.0,0,1.0
389,' 1',599.92142961,599.99894158,600.0,-600.0,1.018756885,0,100.0,0.0,0.0,0.0,0.0,1.0,1,100.0,600.0,0.0,1,1.0,0,1.0,0,1.0,0,1.0
394,' 1',0.00242944,1.79996826,1.8,1.8,0.9901899392,0,100.0,0.0,0.0,0.0,0.0,1.0,1,100.0,1.8,0.0,1,1.0,0,1.0,0,1.0,0,1.0
399,' 1',0.00241774,1.79993521,1.8,1.8,0.9901899605,0,100.0,0.0,0.0,0.0,0.0,1.0,1,100.0,1.8,0.0,1,1.0,0,1.0,0,1.0,0,1.0
401,' 1',5.40002143,5.40006529,5.4,5.4,0.9901899612,0,100.0,0.0,0.0,0.0,0.0,1.0,1,100.0,5.4,0.0,1,1.0,0,1.0,0,1.0,0,1.0
402,' 1',1.79760441,1.79993446,1.8,1.8,0.9901899605,0,100.0,0.0,0.0,0.0,0.0,1.0,1,100.0,1.8,0.0,1,1.0,0,1.0,0,1.0,0,1.0
403,' 1',0.000006,1.80001625,1.8,1.8,0.9901899584,0,100.0,0.0,0.0,0.0,0.0,1.0,1,100.0,1.8,0.0,1,1.0,0,1.0,0,1.0,0,1.0
404,' 1',0.00230237,1.80002937,1.8,1.8,1.0187549024,0,100.0,0.0,0.0,0.0,0.0,1.0,1,100.0,1.8,0.0,1,1.0,0,1.0,0,1.0,0,1.0
0 / END OF GENERATOR DATA, BEGIN BRANCH DATA
1,4,' 1',0.0365020007,0.2217726598,0.0822860313,227.0,272.4,326.88,0.0,0.0,0.0,0.0,1,1.0,0,1.0,0,1.0,0,1.0,0,1.0
2,3,' 1',0.008299945,0.0504273971,0.0187104686,227.0,272.4,326.88,0.0,0.0,0.0,0.0,1,1.0,0,1.0,0,1.0,0,1.0,0,1.0
2,8,' 1',0.006942542,0.0421803179,0.0156504908,227.0,272.4,326.88,0.0,0.0,0.0,0.0,1,1.0,0,1.0,0,1.0,0,1.0,0,1.0
2,8,'1A',0.006942542,0.0421803179,0.0156504908,227.0,272.4,326.88,0.0,0.0,0.0,0.0,1,1.0,0,1.0,0,1.0,0,1.0,0,1.0
2,25,' 1',0.0055727969,0.0338582537,0.0125626907,227.0,272.4,326.88,0.0,0.0,0.0,0.0,1,1.0,0,1.0,0,1.0,0,1.0,0,1.0
2,40,' 1',0.0043206717,0.0262508037,0.0097400394,227.0,272.4,326.88,0.0,0.0,0.0,0.0,1,1.0,0,1.0,0,1.0,0,1.0,0,1.0
2,40,'1A',0.0044347775,0.0269440681,0.0099972667,227.0,272.4,326.88,0.0,0.0,0.0,0.0,1,1.0,0,1.0,0,1.0,0,1.0,0,1.0
2,40,'1B',0.0044347775,0.0269440681,0.0099972667,227.0,272.4,326.88,0.0,0.0,0.0,0.0,1,1.0,0,1.0,0,1.0,0,1.0,0,1.0
2,49,' 1',0.010046956,0.0610415899,0.0226487349,227.0,272.4,326.88,0.0,0.0,0.0,0.0,1,1.0,0,1.0,0,1.0,0,1.0,0,1.0
3,36,' 1',0.0085378732,0.051872961,0.0192468273,227.0,272.4,326.88,0.0,0.0,0.0,0.0,1,1.0,0,1.0,0,1.0,0,1.0,0,1.0
4,5,' 1',0.0129466388,0.0786589905,0.0291854558,227.0,272.4,326.88,0.0,0.0,0.0,0.0,1,1.0,0,1.0,0,1.0,0,1.0,0,1.0
4,15,' 1',0.0141663657,0.0860696002,0.0319350718,227.0,272.4,326.88,0.0,0.0,0.0,0.0,1,1.0,0,1.0,0,1.0,0,1.0,0,1.0
5,6,' 1',0.0090684113,0.0550963138,0.020442813,227.0,272.4,326.88,0.0,0.0,0.0,0.0,1,1.0,0,1.0,0,1.0,0,1.0,0,1.0
5,15,' 1',0.0115174447,0.0699757355,0.0259636403,227.0,272.4,326.88,0.0,0.0,0.0,0.0,1,1.0,0,1.0,0,1.0,0,1.0,0,1.0
6,7,' 1',0.0065126072,0.0395681932,0.0146812938,227.0,272.4,326.88,0.0,0.0,0.0,0.0,1,1.0,0,1.0,0,1.0,0,1.0,0,1.0
7,12,' 1',0.0158646859,0.0963879658,0.0357635751,227.0,272.4,326.88,0.0,0.0,0.0,0.0,1,1.0,0,1.0,0,1.0,0,1.0,0,1.0
8,28,' 1',0.0044711104,0.0271648135,0.0100791716,227.0,272.4,326.88,0.0,0.0,0.0,0.0,1,1.0,0,1.0,0,1.0,0,1.0,0,1.0
8,44,' 1',0.0227951693,0.13849502,0.0513868823,227.0,272.4,326.88,0.0,0.0,0.0,0.0,1,1.0,0,1.0,0,1.0,0,1.0,0,1.0
9,8,' 1',0.0086627764,0.0526318261,0.019528395,227.0,272.4,326.88,0.0,0.0,0.0,0.0,1,1.0,0,1.0,0,1.0,0,1.0,0,1.0
9,8,'1A',0.0086361048,0.0524697796,0.0194682696,227.0,272.4,326.88,0.0,0.0,0.0,0.0,1,1.0,0,1.0,0,1.0,0,1.0,0,1.0
9,21,' 1',0.0047635568,0.0289416096,0.0107384301,227.0,272.4,326.88,0.0,0.0,0.0,0.0,1,1.0,0,1.0,0,1.0,0,1.0,0,1.0
10,9,' 1',0.0181638859,0.1103570548,0.0409466346,227.0,272.4,326.88,0.0,0.0,0.0,0.0,1,1.0,0,1.0,0,1.0,0,1.0,0,1.0
10,37,' 1',0.0072655544,0.0441428219,0.0163786538,227.0,272.4,326.88,0.0,0.0,0.0,0.0,1,1.0,0,1.0,0,1.0,0,1.0,0,1.0
11,14,' 1',0.0080700812,0.0490308297,0.0181922893,227.0,272.4,326.88,0.0,0.0,0.0,0.0,1,1.0,0,1.0,0,1.0,0,1.0,0,1.0
11,14,'1A',0.0080479987,0.0488966643,0.0181425089,227.0,272.4,326.88,0.0,0.0,0.0,0.0,1,1.0,0,1.0,0,1.0,0,1.0,0,1.0
12,16,' 1',0.0083615177,0.0508014901,0.0188492712,227.0,272.4,326.88,0.0,0.0,0.0,0.0,1,1.0,0,1.0,0,1.0,0,1.0,0,1.0
13,16,' 1',0.0215172187,0.1307306649,0.0485060133,227.0,272.4,326.88,0.0,0.0,0.0,0.0,1,1.0,0,1.0,0,1.0,0,1.0,0,1.0
14,13,' 1',0.0145311087,0.0882856438,0.0327573077,227.0,272.4,326.88,0.0,0.0,0.0,0.0,1,1.0,0,1.0,0,1.0,0,1.0,0,1.0
14,30,' 1',0.0302570295,0.1838305238,0.0682080661,227.0,272.4,326.88,0.0,0.0,0.0,0.0,1,1.0,0,1.0,0,1.0,0,1.0,0,1.0
14,34,' 1',0.0479096152,0.2910811073,0.1080020826,227.0,272.4,326.88,0.0,0.0,0.0,0.0,1,1.0,0,1.0,0,1.0,0,1.0,0,1.0
15,45,' 1',0.0124908185,0.0758895949,0.0281579054,227.0,272.4,326.88,0.0,0.0,0.0,0.0,1,1.0,0,1.0,0,1.0,0,1.0,0,1.0
16,1,' 1',0.0239117357,0.1452788647,0.0539039448,227.0,272.4,326.88,0.0,0.0,0.0,0.0,1,1.0,0,1.0,0,1.0,0,1.0,0,1.0
16,19,' 1',0.0000396811,0.0002410877,0.0000894526,227.0,272.4,326.88,0.0,0.0,0.0,0.0,1,1.0,0,1.0,0,1.0,0,1.0,0,1.0
16,45,' 1',0.0080603624,0.0489717815,0.0181703802,227.0,272.4,326.88,0.0,0.0,0.0,0.0,1,1.0,0,1.0,0,1.0,0,1.0,0,1.0
16,46,' 1',0.0042345135,0.0257273385,0.0095458141,227.0,272.4,326.88,0.0,0.0,0.0,0.0,1,1.0,0,1.0,0,1.0,0,1.0,0,1.0
17,8,' 1',0.0075449988,0.0458406228,0.0170086021,227.0,272.4,326.88,0.0,0.0,0.0,0.0,1,1.0,0,1.0,0,1.0,0,1.0,0,1.0
18,17,' 1',0.0184992192,0.1123944158,0.0417025725,227.0,272.4,326.88,0.0,0.0,0.0,0.0,1,1.0,0,1.0,0,1.0,0,1.0,0,1.0
19,18,' 1',0.0138045533,0.0838713616,0.0311194423,227.0,272.4,326.88,0.0,0.0,0.0,0.0,1,1.0,0,1.0,0,1.0,0,1.0,0,1.0
20,8,' 1',0.0069659597,0.0423225956,0.0157032811,227.0,272.4,326.88,0.0,0.0,0.0,0.0,1,1.0,0,1.0,0,1.0,0,1.0,0,1.0
20,47,' 1',0.0092612019,0.0562676387,0.0208774187,227.0,272.4,326.88,0.0,0.0,0.0,0.0,1,1.0,0,1.0,0,1.0,0,1.0,0,1.0
21,8,' 1',0.0102123016,0.0620461688,0.0230214716,227.0,272.4,326.88,0.0,0.0,0.0,0.0,1,1.0,0,1.0,0,1.0,0,1.0,0,1.0
22,8,' 1',0.0052289057,0.0317688976,0.0117874607,227.0,272.4,326.88,0.0,0.0,0.0,0.0,1,1.0,0,1.0,0,1.0,0,1.0,0,1.0
22,26,' 1',0.0013123328,0.0079732488,0.0029583764,227.0,272.4,326.88,0.0,0.0,0.0,0.0,1,1.0,0,1.0,0,1.0,0,1.0,0,1.0
23,22,' 1',0.0014714331,0.0089398837,0.0033170345,227.0,272.4,326.88,0.0,0.0,0.0,0.0,1,1.0,0,1.0,0,1.0,0,1.0,0,1.0
24,32,' 1',0.0022347215,0.0135773414,0.0050377064,227.0,272.4,326.88,0.0,0.0,0.0,0.0,1,1.0,0,1.0,0,1.0,0,1.0,0,1.0
25,22,' 1',0.0019131759,0.0116237497,0.0043128501,227.0,272.4,326.88,0.0,0.0,0.0,0.0,1,1.0,0,1.0,0,1.0,0,1.0,0,1.0
25,26,' 1',0.0033731781,0.0204941827,0.0076041157,227.0,272.4,326.88,0.0,0.0,0.0,0.0,1,1.0,0,1.0,0,1.0,0,1.0,0,1.0
26,20,' 1',0.0074581979,0.0453132528,0.0168129279,227.0,272.4,326.88,0.0,0.0,0.0,0.0,1,1.0,0,1.0,0,1.0,0,1.0,0,1.0
27,44,' 1',0.0079287048,0.0481718787,0.0178735861,227.0,272.4,326.88,0.0,0.0,0.0,0.0,1,1.0,0,1.0,0,1.0,0,1.0,0,1.0
28,29,' 1',0.0238645517,0.144992192,0.0537975784,227.0,272.4,326.88,0.0,0.0,0.0,0.0,1,1.0,0,1.0,0,1.0,0,1.0,0,1.0
29,27,' 1',0.0095251464,0.0578712679,0.0214724257,227.0,272.4,326.88,0.0,0.0,0.0,0.0,1,1.0,0,1.0,0,1.0,0,1.0,0,1.0
30,10,' 1',0.010225787,0.0621281011,0.0230518716,227.0,272.4,326.88,0.0,0.0,0.0,0.0,1,1.0,0,1.0,0,1.0,0,1.0,0,1.0
30,31,' 1',0.0241998849,0.147029553,0.0545535163,227.0,272.4,326.88,0.0,0.0,0.0,0.0,1,1.0,0,1.0,0,1.0,0,1.0,0,1.0
30,407,' 1',0.0,0.001,0.0,47.77,57.324,68.7888,0.0,0.0,0.0,0.0,1,1.0,0,1.0,0,1.0,0,1.0,0,1.0
31,48,' 1',0.0043034437,0.026146133,0.0097012027,227.0,272.4,326.88,0.0,0.0,0.0,0.0,1,1.0,0,1.0,0,1.0,0,1.0,0,1.0
32,33,' 1',0.0023473329,0.0142615271,0.0052915651,227.0,272.4,326.88,0.0,0.0,0.0,0.0,1,1.0,0,1.0,0,1.0,0,1.0,0,1.0
32,48,' 1',0.0042801965,0.0260048911,0.0096487966,227.0,272.4,326.88,0.0,0.0,0.0,0.0,1,1.0,0,1.0,0,1.0,0,1.0,0,1.0
33,44,' 1',0.008830443,0.0536505066,0.0199063639,227.0,272.4,326.88,0.0,0.0,0.0,0.0,1,1.0,0,1.0,0,1.0,0,1.0,0,1.0
35,12,' 1',0.0168058492,0.1021061257,0.0378852284,227.0,272.4,326.88,0.0,0.0,0.0,0.0,1,1.0,0,1.0,0,1.0,0,1.0,0,1.0
36,35,' 1',0.0044188555,0.026847332,0.009961374,227.0,272.4,326.88,0.0,0.0,0.0,0.0,1,1.0,0,1.0,0,1.0,0,1.0,0,1.0
37,38,' 1',0.0062595545,0.0380307389,0.0141108402,227.0,272.4,326.88,0.0,0.0,0.0,0.0,1,1.0,0,1.0,0,1.0,0,1.0,0,1.0
37,38,'1A',0.0079376186,0.0482260355,0.0178936803,227.0,272.4,326.88,0.0,0.0,0.0,0.0,1,1.0,0,1.0,0,1.0,0,1.0,0,1.0
37,43,' 1',0.0022514047,0.0136787026,0.0050753152,227.0,272.4,326.88,0.0,0.0,0.0,0.0,1,1.0,0,1.0,0,1.0,0,1.0,0,1.0
37,50,' 1',0.0027329662,0.0166044922,0.0061608936,227.0,272.4,326.88,0.0,0.0,0.0,0.0,1,1.0,0,1.0,0,1.0,0,1.0,0,1.0
38,21,' 1',0.011700818,0.0710898438,0.0263770165,227.0,272.4,326.88,0.0,0.0,0.0,0.0,1,1.0,0,1.0,0,1.0,0,1.0,0,1.0
39,9,' 1',0.0267148845,0.1623097606,0.0602230503,227.0,272.4,326.88,0.0,0.0,0.0,0.0,1,1.0,0,1.0,0,1.0,0,1.0,0,1.0
40,25,' 1',0.0039980459,0.0242906484,0.0090127478,227.0,272.4,326.88,0.0,0.0,0.0,0.0,1,1.0,0,1.0,0,1.0,0,1.0,0,1.0
41,42,' 1',0.0073566191,0.0446960974,0.01658394,227.0,272.4,326.88,0.0,0.0,0.0,0.0,1,1.0,0,1.0,0,1.0,0,1.0,0,1.0
41,49,' 1',0.0009049032,0.0054978572,0.0020399126,227.0,272.4,326.88,0.0,0.0,0.0,0.0,1,1.0,0,1.0,0,1.0,0,1.0,0,1.0
42,38,' 1',0.0036470445,0.0221580938,0.0082214895,227.0,272.4,326.88,0.0,0.0,0.0,0.0,1,1.0,0,1.0,0,1.0,0,1.0,0,1.0
43,10,' 1',0.0039904743,0.0242446463,0.0089956793,227.0,272.4,326.88,0.0,0.0,0.0,0.0,1,1.0,0,1.0,0,1.0,0,1.0,0,1.0
43,50,' 1',0.0001986914,0.0012071754,0.0004479077,227.0,272.4,326.88,0.0,0.0,0.0,0.0,1,1.0,0,1.0,0,1.0,0,1.0,0,1.0
51,52,' 1',0.0051127007,0.0397256847,0.2037708609,454.0,544.8,653.76,0.0,0.0,0.0,0.0,1,1.0,0,1.0,0,1.0,0,1.0,0,1.0
51,53,' 1',0.0038199758,0.0296812119,0.1522482533,454.0,544.8,653.76,0.0,0.0,0.0,0.0,1,1.0,0,1.0,0,1.0,0,1.0,0,1.0
52,57,' 1',0.0078967222,0.0613575312,0.3147303078,454.0,544.8,653.76,0.0,0.0,0.0,0.0,1,1.0,0,1.0,0,1.0,0,1.0,0,1.0
52,57,'1A',0.0078967222,0.0613575312,0.3147303078,454.0,544.8,653.76,0.0,0.0,0.0,0.0,1,1.0,0,1.0,0,1.0,0,1.0,0,1.0
54,51,' 1',0.0023613732,0.0183478694,0.0941144548,454.0,544.8,653.76,0.0,0.0,0.0,0.0,1,1.0,0,1.0,0,1.0,0,1.0,0,1.0
55,53,' 1',0.0050489502,0.0392303434,0.2012300331,454.0,544.8,653.76,0.0,0.0,0.0,0.0,1,1.0,0,1.0,0,1.0,0,1.0,0,1.0
57,58,' 1',0.0071648308,0.0556707349,0.285560178,454.0,544.8,653.76,0.0,0.0,0.0,0.0,1,1.0,0,1.0,0,1.0,0,1.0,0,1.0
57,59,' 1',0.0079566818,0.0618234178,0.3171200492,454.0,544.8,653.76,0.0,0.0,0.0,0.0,1,1.0,0,1.0,0,1.0,0,1.0,0,1.0
58,54,' 1',0.0060254918,0.0468180715,0.2401508952,454.0,544.8,653.76,0.0,0.0,0.0,0.0,1,1.0,0,1.0,0,1.0,0,1.0,0,1.0
61,51,' 1',0.0030417949,0.0236347466,0.1212332196,454.0,544.8,653.76,0.0,0.0,0.0,0.0,1,1.0,0,1.0,0,1.0,0,1.0,0,1.0
61,53,' 1',0.0068725267,0.0533995327,0.2739101629,454.0,544.8,653.76,0.0,0.0,0.0,0.0,1,1.0,0,1.0,0,1.0,0,1.0,0,1.0
61,60,' 1',0.00419075,0.0325621275,0.1670257618,454.0,544.8,653.76,0.0,0.0,0.0,0.0,1,1.0,0,1.0,0,1.0,0,1.0,0,1.0
63,70,' 1',0.0,0.000001,0.0,47.77,57.324,68.7888,0.0,0.0,0.0,0.0,1,1.0,0,1.0,0,1.0,0,1.0,0,1.0
63,98,' 1',0.0,0.000001,0.0,47.77,57.324,68.7888,0.0,0.0,0.0,0.0,1,1.0,0,1.0,0,1.0,0,1.0,0,1.0
64,100,' 1',0.3686170311,0.000001,0.0,47.77,57.324,68.7888,0.0,0.0,0.0,0.0,1,1.0,0,1.0,0,1.0,0,1.0,0,1.0
64,101,' 1',0.0,0.000001,0.0,47.77,57.324,68.7888,0.0,0.0,0.0,0.0,1,1.0,0,1.0,0,1.0,0,1.0,0,1.0
64,123,' 1',0.0916580949,0.000001,0.0,47.77,57.324,68.7888,0.0,0.0,0.0,0.0,1,1.0,0,1.0,0,1.0,0,1.0,0,1.0
64,159,' 1',0.0,0.000001,0.0,47.77,57.324,68.7888,0.0,0.0,0.0,0.0,1,1.0,0,1.0,0,1.0,0,1.0,0,1.0
64,187,' 1',0.0,0.000001,0.0,47.77,57.324,68.7888,0.0,0.0,0.0,0.0,1,1.0,0,1.0,0,1.0,0,1.0,0,1.0
64,251,' 1',0.0,0.000001,0.0,47.77,57.324,68.7888,0.0,0.0,0.0,0.0,1,1.0,0,1.0,0,1.0,0,1.0,0,1.0
65,87,' 1',0.0,0.000001,0.0,47.77,57.324,68.7888,0.0,0.0,0.0,0.0,1,1.0,0,1.0,0,1.0,0,1.0,0,1.0
65,114,' 1',0.0,0.000001,0.0,47.77,57.324,68.7888,0.0,0.0,0.0,0.0,1,1.0,0,1.0,0,1.0,0,1.0,0,1.0
65,115,' 1',0.0,0.000001,0.0,47.77,57.324,68.7888,0.0,0.0,0.0,0.0,1,1.0,0,1.0,0,1.0,0,1.0,0,1.0
65,116,' 1',0.0,0.000001,0.0,47.77,57.324,68.7888,0.0,0.0,0.0,0.0,1,1.0,0,1.0,0,1.0,0,1.0,0,1.0
65,117,' 1',0.0,0.000001,0.0,47.77,57.324,68.7888,0.0,0.0,0.0,0.0,1,1.0,0,1.0,0,1.0,0,1.0,0,1.0
65,118,' 1',0.0,0.000001,0.0,47.77,57.324,68.7888,0.0,0.0,0.0,0.0,1,1.0,0,1.0,0,1.0,0,1.0,0,1.0
65,147,' 1',0.0,0.000001,0.0,47.77,57.324,68.7888,0.0,0.0,0.0,0.0,1,1.0,0,1.0,0,1.0,0,1.0,0,1.0
65,157,' 1',0.0,0.000001,0.0,47.77,57.324,68.7888,0.0,0.0,0.0,0.0,1,1.0,0,1.0,0,1.0,0,1.0,0,1.0
65,158,' 1',0.0,0.000001,0.0,47.77,57.324,68.7888,0.0,0.0,0.0,0.0,1,1.0,0,1.0,0,1.0,0,1.0,0,1.0
65,160,' 1',0.0,0.000001,0.0,47.77,57.324,68.7888,0.0,0.0,0.0,0.0,1,1.0,0,1.0,0,1.0,0,1.0,0,1.0
65,192,' 1',0.0,0.000001,0.0,47.77,57.324,68.7888,0.0,0.0,0.0,0.0,1,1.0,0,1.0,0,1.0,0,1.0,0,1.0
65,201,' 1',0.0,0.000001,0.0,47.77,57.324,68.7888,0.0,0.0,0.0,0.0,1,1.0,0,1.0,0,1.0,0,1.0,0,1.0
65,206,' 1',0.0,0.000001,0.0,47.77,57.324,68.7888,0.0,0.0,0.0,0.0,1,1.0,0,1.0,0,1.0,0,1.0,0,1.0
65,211,' 1',0.0,0.000001,0.0,47.77,57.324,68.7888,0.0,0.0,0.0,0.0,1,1.0,0,1.0,0,1.0,0,1.0,0,1.0
65,224,' 1',0.0,0.000001,0.0,47.77,57.324,68.7888,0.0,0.0,0.0,0.0,1,1.0,0,1.0,0,1.0,0,1.0,0,1.0
65,271,' 1',0.0,0.000001,0.0,47.77,57.324,68.7888,0.0,0.0,0.0,0.0,1,1.0,0,1.0,0,1.0,0,1.0,0,1.0
65,273,' 1',0.0,0.000001,0.0,47.77,57.324,68.7888,0.0,0.0,0.0,0.0,1,1.0,0,1.0,0,1.0,0,1.0,0,1.0
65,279,' 1',0.0,0.000001,0.0,47.77,57.324,68.7888,0.0,0.0,0.0,0.0,1,1.0,0,1.0,0,1.0,0,1.0,0,1.0
65,292,' 1',0.0,0.000001,0.0,47.77,57.324,68.7888,0.0,0.0,0.0,0.0,1,1.0,0,1.0,0,1.0,0,1.0,0,1.0
65,295,' 1',0.0,0.000001,0.0,47.77,57.324,68.7888,0.0,0.0,0.0,0.0,1,1.0,0,1.0,0,1.0,0,1.0,0,1.0
65,297,' 1',0.0,0.000001,0.0,47.77,57.324,68.7888,0.0,0.0,0.0,0.0,1,1.0,0,1.0,0,1.0,0,1.0,0,1.0
65,298,' 1',0.0,0.000001,0.0,47.77,57.324,68.7888,0.0,0.0,0.0,0.0,1,1.0,0,1.0,0,1.0,0,1.0,0,1.0
65,336,' 1',0.0,0.000001,0.0,47.77,57.324,68.7888,0.0,0.0,0.0,0.0,1,1.0,0,1.0,0,1.0,0,1.0,0,1.0
65,341,' 1',0.0,0.000001,0.0,47.77,57.324,68.7888,0.0,0.0,0.0,0.0,1,1.0,0,1.0,0,1.0,0,1.0,0,1.0
65,350,' 1',0.0,0.000001,0.0,47.77,57.324,68.7888,0.0,0.0,0.0,0.0,1,1.0,0,1.0,0,1.0,0,1.0,0,1.0
66,164,' 1',0.0,0.000001,0.0,47.77,57.324,68.7888,0.0,0.0,0.0,0.0,1,1.0,0,1.0,0,1.0,0,1.0,0,1.0
67,118,' 1',0.0,0.000001,0.0,47.77,57.324,68.7888,0.0,0.0,0.0,0.0,1,1.0,0,1.0,0,1.0,0,1.0,0,1.0
68,69,' 1',0.0,0.000001,0.0,47.77,57.324,68.7888,0.0,0.0,0.0,0.0,1,1.0,0,1.0,0,1.0,0,1.0,0,1.0
68,93,' 1',0.0,0.000001,0.0,47.77,57.324,68.7888,0.0,0.0,0.0,0.0,1,1.0,0,1.0,0,1.0,0,1.0,0,1.0
68,333,' 1',0.0,0.000001,0.0,47.77,57.324,68.7888,0.0,0.0,0.0,0.0,1,1.0,0,1.0,0,1.0,0,1.0,0,1.0
69,408,' 1',0.0060254918,0.0468180715,0.2401508952,454.0,544.8,653.76,0.0,0.0,0.0,0.0,1,1.0,0,1.0,0,1.0,0,1.0,0,1.0
70,98,' 1',0.0,0.000001,0.0,47.77,57.324,68.7888,0.0,0.0,0.0,0.0,1,1.0,0,1.0,0,1.0,0,1.0,0,1.0
71,129,' 1',0.0,0.000001,0.0,47.77,57.324,68.7888,0.0,0.0,0.0,0.0,1,1.0,0,1.0,0,1.0,0,1.0,0,1.0
72,178,' 1',0.0,0.000001,0.0,47.77,57.324,68.7888,0.0,0.0,0.0,0.0,1,1.0,0,1.0,0,1.0,0,1.0,0,1.0
72,184,' 1',0.0,0.000001,0.0,47.77,57.324,68.7888,0.0,0.0,0.0,0.0,1,1.0,0,1.0,0,1.0,0,1.0,0,1.0
73,138,' 1',0.0,0.000001,0.0,47.77,57.324,68.7888,0.0,0.0,0.0,0.0,1,1.0,0,1.0,0,1.0,0,1.0,0,1.0
73,193,' 1',0.0,0.000001,0.0,47.77,57.324,68.7888,0.0,0.0,0.0,0.0,1,1.0,0,1.0,0,1.0,0,1.0,0,1.0
73,200,' 1',0.0,0.000001,0.0,47.77,57.324,68.7888,0.0,0.0,0.0,0.0,1,1.0,0,1.0,0,1.0,0,1.0,0,1.0
73,250,' 1',0.0,0.000001,0.0,47.77,57.324,68.7888,0.0,0.0,0.0,0.0,1,1.0,0,1.0,0,1.0,0,1.0,0,1.0
77,171,' 1',0.0,0.000001,0.0,47.77,57.324,68.7888,0.0,0.0,0.0,0.0,1,1.0,0,1.0,0,1.0,0,1.0,0,1.0
77,204,' 1',0.0,0.000001,0.0,47.77,57.324,68.7888,0.0,0.0,0.0,0.0,1,1.0,0,1.0,0,1.0,0,1.0,0,1.0
77,217,' 1',0.0,0.000001,0.0,47.77,57.324,68.7888,0.0,0.0,0.0,0.0,1,1.0,0,1.0,0,1.0,0,1.0,0,1.0
77,218,' 1',0.0,0.000001,0.0,47.77,57.324,68.7888,0.0,0.0,0.0,0.0,1,1.0,0,1.0,0,1.0,0,1.0,0,1.0
77,238,' 1',0.0,0.000001,0.0,47.77,57.324,68.7888,0.0,0.0,0.0,0.0,1,1.0,0,1.0,0,1.0,0,1.0,0,1.0
77,239,' 1',0.0,0.000001,0.0,47.77,57.324,68.7888,0.0,0.0,0.0,0.0,1,1.0,0,1.0,0,1.0,0,1.0,0,1.0
77,240,' 1',0.0,0.000001,0.0,47.77,57.324,68.7888,0.0,0.0,0.0,0.0,1,1.0,0,1.0,0,1.0,0,1.0,0,1.0
79,68,' 1',0.0,0.000001,0.0,47.77,57.324,68.7888,0.0,0.0,0.0,0.0,1,1.0,0,1.0,0,1.0,0,1.0,0,1.0
79,69,' 1',0.000001,0.000001,0.0,47.77,57.324,68.7888,0.0,0.0,0.0,0.0,1,1.0,0,1.0,0,1.0,0,1.0,0,1.0
79,93,' 1',0.0,0.000001,0.0,47.77,57.324,68.7888,0.0,0.0,0.0,0.0,1,1.0,0,1.0,0,1.0,0,1.0,0,1.0
79,333,' 1',0.0,0.000001,0.0,47.77,57.324,68.7888,0.0,0.0,0.0,0.0,1,1.0,0,1.0,0,1.0,0,1.0,0,1.0
80,119,' 1',0.0,0.000001,0.0,47.77,57.324,68.7888,0.0,0.0,0.0,0.0,1,1.0,0,1.0,0,1.0,0,1.0,0,1.0
80,120,' 1',0.0,0.000001,0.0,47.77,57.324,68.7888,0.0,0.0,0.0,0.0,1,1.0,0,1.0,0,1.0,0,1.0,0,1.0
80,191,' 1',0.0,0.000001,0.0,47.77,57.324,68.7888,0.0,0.0,0.0,0.0,1,1.0,0,1.0,0,1.0,0,1.0,0,1.0
80,221,' 1',0.0,0.000001,0.0,47.77,57.324,68.7888,0.0,0.0,0.0,0.0,1,1.0,0,1.0,0,1.0,0,1.0,0,1.0
81,122,' 1',0.0,0.000001,0.0,47.77,57.324,68.7888,0.0,0.0,0.0,0.0,1,1.0,0,1.0,0,1.0,0,1.0,0,1.0
81,125,' 1',0.0,0.000001,0.0,47.77,57.324,68.7888,0.0,0.0,0.0,0.0,1,1.0,0,1.0,0,1.0,0,1.0,0,1.0
81,127,' 1',0.0,0.000001,0.0,47.77,57.324,68.7888,0.0,0.0,0.0,0.0,1,1.0,0,1.0,0,1.0,0,1.0,0,1.0
81,131,' 1',0.0,0.000001,0.0,47.77,57.324,68.7888,0.0,0.0,0.0,0.0,1,1.0,0,1.0,0,1.0,0,1.0,0,1.0
81,160,' 1',0.0,0.000001,0.0,47.77,57.324,68.7888,0.0,0.0,0.0,0.0,1,1.0,0,1.0,0,1.0,0,1.0,0,1.0
81,170,' 1',0.0,0.000001,0.0,47.77,57.324,68.7888,0.0,0.0,0.0,0.0,1,1.0,0,1.0,0,1.0,0,1.0,0,1.0
82,91,' 1',0.0,0.000001,0.0,47.77,57.324,68.7888,0.0,0.0,0.0,0.0,1,1.0,0,1.0,0,1.0,0,1.0,0,1.0
83,64,' 1',0.0,0.000001,0.0,47.77,57.324,68.7888,0.0,0.0,0.0,0.0,1,1.0,0,1.0,0,1.0,0,1.0,0,1.0
83,100,' 1',0.0,0.000001,0.0,47.77,57.324,68.7888,0.0,0.0,0.0,0.0,1,1.0,0,1.0,0,1.0,0,1.0,0,1.0
83,101,' 1',0.0,0.000001,0.0,47.77,57.324,68.7888,0.0,0.0,0.0,0.0,1,1.0,0,1.0,0,1.0,0,1.0,0,1.0
83,123,' 1',0.0,0.000001,0.0,47.77,57.324,68.7888,0.0,0.0,0.0,0.0,1,1.0,0,1.0,0,1.0,0,1.0,0,1.0
83,159,' 1',0.0,0.000001,0.0,47.77,57.324,68.7888,0.0,0.0,0.0,0.0,1,1.0,0,1.0,0,1.0,0,1.0,0,1.0
83,187,' 1',0.0,0.000001,0.0,47.77,57.324,68.7888,0.0,0.0,0.0,0.0,1,1.0,0,1.0,0,1.0,0,1.0,0,1.0
83,251,' 1',0.0,0.000001,0.0,47.77,57.324,68.7888,0.0,0.0,0.0,0.0,1,1.0,0,1.0,0,1.0,0,1.0,0,1.0
83,267,' 1',0.0,0.000001,0.0,47.77,57.324,68.7888,0.0,0.0,0.0,0.0,1,1.0,0,1.0,0,1.0,0,1.0,0,1.0
83,272,' 1',0.7135032916,0.000001,0.0,47.77,57.324,68.7888,0.0,0.0,0.0,0.0,1,1.0,0,1.0,0,1.0,0,1.0,0,1.0
84,71,' 1',0.0,0.000001,0.0,47.77,57.324,68.7888,0.0,0.0,0.0,0.0,1,1.0,0,1.0,0,1.0,0,1.0,0,1.0
84,129,' 1',0.0,0.000001,0.0,47.77,57.324,68.7888,0.0,0.0,0.0,0.0,1,1.0,0,1.0,0,1.0,0,1.0,0,1.0
84,133,' 1',0.0,0.000001,0.0,47.77,57.324,68.7888,0.0,0.0,0.0,0.0,1,1.0,0,1.0,0,1.0,0,1.0,0,1.0
84,146,' 1',0.0,0.000001,0.0,47.77,57.324,68.7888,0.0,0.0,0.0,0.0,1,1.0,0,1.0,0,1.0,0,1.0,0,1.0
84,148,' 1',0.0,0.000001,0.0,47.77,57.324,68.7888,0.0,0.0,0.0,0.0,1,1.0,0,1.0,0,1.0,0,1.0,0,1.0
84,149,' 1',0.0,0.000001,0.0,47.77,57.324,68.7888,0.0,0.0,0.0,0.0,1,1.0,0,1.0,0,1.0,0,1.0,0,1.0
84,154,' 1',0.0,0.000001,0.0,47.77,57.324,68.7888,0.0,0.0,0.0,0.0,1,1.0,0,1.0,0,1.0,0,1.0,0,1.0
85,71,' 1',0.0,0.000001,0.0,47.77,57.324,68.7888,0.0,0.0,0.0,0.0,1,1.0,0,1.0,0,1.0,0,1.0,0,1.0
85,84,' 1',0.0,0.000001,0.0,47.77,57.324,68.7888,0.0,0.0,0.0,0.0,1,1.0,0,1.0,0,1.0,0,1.0,0,1.0
85,129,' 1',0.0,0.000001,0.0,47.77,57.324,68.7888,0.0,0.0,0.0,0.0,1,1.0,0,1.0,0,1.0,0,1.0,0,1.0
85,133,' 1',0.0,0.000001,0.0,47.77,57.324,68.7888,0.0,0.0,0.0,0.0,1,1.0,0,1.0,0,1.0,0,1.0,0,1.0
85,146,' 1',0.0,0.000001,0.0,47.77,57.324,68.7888,0.0,0.0,0.0,0.0,1,1.0,0,1.0,0,1.0,0,1.0,0,1.0
85,148,' 1',0.6911238265,0.000001,0.0,47.77,57.324,68.7888,0.0,0.0,0.0,0.0,1,1.0,0,1.0,0,1.0,0,1.0,0,1.0
85,149,' 1',0.0,0.000001,0.0,47.77,57.324,68.7888,0.0,0.0,0.0,0.0,1,1.0,0,1.0,0,1.0,0,1.0,0,1.0
85,154,' 1',0.0,0.000001,0.0,47.77,57.324,68.7888,0.0,0.0,0.0,0.0,1,1.0,0,1.0,0,1.0,0,1.0,0,1.0
86,213,' 1',0.0000008333,0.000001,0.0,47.77,57.324,68.7888,0.0,0.0,0.0,0.0,1,1.0,0,1.0,0,1.0,0,1.0,0,1.0
87,114,' 1',0.0,0.000001,0.0,47.77,57.324,68.7888,0.0,0.0,0.0,0.0,1,1.0,0,1.0,0,1.0,0,1.0,0,1.0
87,115,' 1',0.0,0.000001,0.0,47.77,57.324,68.7888,0.0,0.0,0.0,0.0,1,1.0,0,1.0,0,1.0,0,1.0,0,1.0
87,116,' 1',0.0,0.000001,0.0,47.77,57.324,68.7888,0.0,0.0,0.0,0.0,1,1.0,0,1.0,0,1.0,0,1.0,0,1.0
87,117,' 1',0.0,0.000001,0.0,47.77,57.324,68.7888,0.0,0.0,0.0,0.0,1,1.0,0,1.0,0,1.0,0,1.0,0,1.0
87,118,' 1',0.0,0.000001,0.0,47.77,57.324,68.7888,0.0,0.0,0.0,0.0,1,1.0,0,1.0,0,1.0,0,1.0,0,1.0
88,214,' 1',0.0,0.000001,0.0,47.77,57.324,68.7888,0.0,0.0,0.0,0.0,1,1.0,0,1.0,0,1.0,0,1.0,0,1.0
89,65,' 1',0.0,0.000001,0.0,47.77,57.324,68.7888,0.0,0.0,0.0,0.0,1,1.0,0,1.0,0,1.0,0,1.0,0,1.0
89,87,' 1',0.0,0.000001,0.0,47.77,57.324,68.7888,0.0,0.0,0.0,0.0,1,1.0,0,1.0,0,1.0,0,1.0,0,1.0
89,114,' 1',0.0,0.000001,0.0,47.77,57.324,68.7888,0.0,0.0,0.0,0.0,1,1.0,0,1.0,0,1.0,0,1.0,0,1.0
89,115,' 1',0.0,0.000001,0.0,47.77,57.324,68.7888,0.0,0.0,0.0,0.0,1,1.0,0,1.0,0,1.0,0,1.0,0,1.0
89,116,' 1',0.0,0.000001,0.0,47.77,57.324,68.7888,0.0,0.0,0.0,0.0,1,1.0,0,1.0,0,1.0,0,1.0,0,1.0
89,117,' 1',0.0,0.000001,0.0,47.77,57.324,68.7888,0.0,0.0,0.0,0.0,1,1.0,0,1.0,0,1.0,0,1.0,0,1.0
89,118,' 1',0.0,0.000001,0.0,47.77,57.324,68.7888,0.0,0.0,0.0,0.0,1,1.0,0,1.0,0,1.0,0,1.0,0,1.0
89,147,' 1',0.0,0.000001,0.0,47.77,57.324,68.7888,0.0,0.0,0.0,0.0,1,1.0,0,1.0,0,1.0,0,1.0,0,1.0
89,157,' 1',0.0,0.000001,0.0,47.77,57.324,68.7888,0.0,0.0,0.0,0.0,1,1.0,0,1.0,0,1.0,0,1.0,0,1.0
89,158,' 1',0.0,0.000001,0.0,47.77,57.324,68.7888,0.0,0.0,0.0,0.0,1,1.0,0,1.0,0,1.0,0,1.0,0,1.0
89,160,' 1',0.0,0.000001,0.0,47.77,57.324,68.7888,0.0,0.0,0.0,0.0,1,1.0,0,1.0,0,1.0,0,1.0,0,1.0
89,192,' 1',0.0,0.000001,0.0,47.77,57.324,68.7888,0.0,0.0,0.0,0.0,1,1.0,0,1.0,0,1.0,0,1.0,0,1.0
89,201,' 1',0.0,0.000001,0.0,47.77,57.324,68.7888,0.0,0.0,0.0,0.0,1,1.0,0,1.0,0,1.0,0,1.0,0,1.0
89,206,' 1',0.0,0.000001,0.0,47.77,57.324,68.7888,0.0,0.0,0.0,0.0,1,1.0,0,1.0,0,1.0,0,1.0,0,1.0
89,211,' 1',0.0,0.000001,0.0,47.77,57.324,68.7888,0.0,0.0,0.0,0.0,1,1.0,0,1.0,0,1.0,0,1.0,0,1.0
89,224,' 1',0.0,0.000001,0.0,47.77,57.324,68.7888,0.0,0.0,0.0,0.0,1,1.0,0,1.0,0,1.0,0,1.0,0,1.0
...
0 / END OF BRANCH DATA, BEGIN TRANSFORMER DATA
1,69,0,' 1',1,1,1,0.0,0.0,2,'            ',1,0,1.0,0,1.0,0,1.0,0,1.0
0.0061,0.04956,100.0,
1.0,0.0,0.0,350.0,420.0,504.0,0,1,1.5,0.5,1.5,1.5,33,0,0.0,0.0
1.0,0.0
2,65,0,' 1',1,1,1,0.0,0.0,2,'            ',1,0,1.0,0,1.0,0,1.0,0,1.0
0.0061,0.04956,100.0,
1.0,0.0,0.0,350.0,420.0,504.0,0,1,1.5,0.5,1.5,1.5,33,0,0.0,0.0
1.0,0.0
3,90,0,' 1',1,1,1,0.0,0.0,2,'            ',1,0,1.0,0,1.0,0,1.0,0,1.0
0.0061,0.04956,100.0,
1.0,0.0,0.0,350.0,420.0,504.0,0,1,1.5,0.5,1.5,1.5,33,0,0.0,0.0
1.0,0.0
5,83,0,' 1',1,1,1,0.0,0.0,2,'            ',1,0,1.0,0,1.0,0,1.0,0,1.0
0.0061,0.04956,100.0,
1.0,0.0,0.0,350.0,420.0,504.0,0,1,1.5,0.5,1.5,1.5,33,0,0.0,0.0
1.0,0.0
6,89,0,' 1',1,1,1,0.0,0.0,2,'            ',1,0,1.0,0,1.0,0,1.0,0,1.0
0.0061,0.04956,100.0,
1.0,0.0,0.0,350.0,420.0,504.0,0,1,1.5,0.5,1.5,1.5,33,0,0.0,0.0
1.0,0.0
7,88,0,' 1',1,1,1,0.0,0.0,2,'            ',1,0,1.0,0,1.0,0,1.0,0,1.0
0.0061,0.04956,100.0,
1.0,0.0,0.0,350.0,420.0,504.0,0,1,1.5,0.5,1.5,1.5,33,0,0.0,0.0
1.0,0.0
8,76,0,' 1',1,1,1,0.0,0.0,2,'            ',1,0,1.0,0,1.0,0,1.0,0,1.0
0.0061,0.04956,100.0,
1.0,0.0,0.0,350.0,420.0,504.0,0,1,1.5,0.5,1.5,1.5,33,0,0.0,0.0
1.0,0.0
9,62,0,' 1',1,1,1,0.0,0.0,2,'            ',1,0,1.0,0,1.0,0,1.0,0,1.0
0.0061,0.04956,100.0,
1.0,0.0,0.0,350.0,420.0,504.0,0,1,1.5,0.5,1.5,1.5,33,0,0.0,0.0
1.0,0.0
11,72,0,' 1',1,1,1,0.0,0.0,2,'            ',1,0,1.0,0,1.0,0,1.0,0,1.0
0.0061,0.04956,100.0,
1.0,0.0,0.0,350.0,420.0,504.0,0,1,1.5,0.5,1.5,1.5,33,0,0.0,0.0
1.0,0.0
12,64,0,' 1',1,1,1,0.0,0.0,2,'            ',1,0,1.0,0,1.0,0,1.0,0,1.0
0.0061,0.04956,100.0,
1.0,0.0,0.0,350.0,420.0,504.0,0,1,1.5,0.5,1.5,1.5,33,0,0.0,0.0
1.0,0.0
13,86,0,' 1',1,1,1,0.0,0.0,2,'            ',1,0,1.0,0,1.0,0,1.0,0,1.0
0.0061,0.04956,100.0,
1.0,0.0,0.0,350.0,420.0,504.0,0,1,1.5,0.5,1.5,1.5,33,0,0.0,0.0
1.0,0.0
15,91,0,' 1',1,1,1,0.0,0.0,2,'            ',1,0,1.0,0,1.0,0,1.0,0,1.0
0.0061,0.04956,100.0,
1.0,0.0,0.0,350.0,420.0,504.0,0,1,1.5,0.5,1.5,1.5,33,0,0.0,0.0
1.0,0.0
16,71,0,' 1',1,1,1,0.0,0.0,2,'            ',1,0,1.0,0,1.0,0,1.0,0,1.0
0.0061,0.04956,100.0,
1.0,0.0,0.0,350.0,420.0,504.0,0,1,1.5,0.5,1.5,1.5,33,0,0.0,0.0
1.0,0.0
17,94,0,' 1',1,1,1,0.0,0.0,2,'            ',1,0,1.0,0,1.0,0,1.0,0,1.0
0.0061,0.04956,100.0,
1.0,0.0,0.0,350.0,420.0,504.0,0,1,1.5,0.5,1.5,1.5,33,0,0.0,0.0
1.0,0.0
19,71,0,' 1',1,1,1,0.0,0.0,2,'            ',1,0,1.0,0,1.0,0,1.0,0,1.0
0.0061,0.04956,100.0,
1.0,0.0,0.0,350.0,420.0,504.0,0,1,1.5,0.5,1.5,1.5,33,0,0.0,0.0
1.0,0.0
20,81,0,' 1',1,1,1,0.0,0.0,2,'            ',1,0,1.0,0,1.0,0,1.0,0,1.0
0.0061,0.04956,100.0,
1.0,0.0,0.0,350.0,420.0,504.0,0,1,1.5,0.5,1.5,1.5,33,0,0.0,0.0
1.0,0.0
21,93,0,' 1',1,1,1,0.0,0.0,2,'            ',1,0,1.0,0,1.0,0,1.0,0,1.0
0.0061,0.04956,100.0,
1.0,0.0,0.0,350.0,420.0,504.0,0,1,1.5,0.5,1.5,1.5,33,0,0.0,0.0
1.0,0.0
22,82,0,' 1',1,1,1,0.0,0.0,2,'            ',1,0,1.0,0,1.0,0,1.0,0,1.0
0.0061,0.04956,100.0,
1.0,0.0,0.0,350.0,420.0,504.0,0,1,1.5,0.5,1.5,1.5,33,0,0.0,0.0
1.0,0.0
24,87,0,' 1',1,1,1,0.0,0.0,2,'            ',1,0,1.0,0,1.0,0,1.0,0,1.0
0.0061,0.04956,100.0,
1.0,0.0,0.0,350.0,420.0,504.0,0,1,1.5,0.5,1.5,1.5,33,0,0.0,0.0
1.0,0.0
25,82,0,' 1',1,1,1,0.0,0.0,2,'            ',1,0,1.0,0,1.0,0,1.0,0,1.0
0.0061,0.04956,100.0,
1.0,0.0,0.0,350.0,420.0,504.0,0,1,1.5,0.5,1.5,1.5,33,0,0.0,0.0
1.0,0.0
26,74,0,' 1',1,1,1,0.0,0.0,2,'            ',1,0,1.0,0,1.0,0,1.0,0,1.0
0.0061,0.04956,100.0,
1.0,0.0,0.0,350.0,420.0,504.0,0,1,1.5,0.5,1.5,1.5,33,0,0.0,0.0
1.0,0.0
27,70,0,' 1',1,1,1,0.0,0.0,2,'            ',1,0,1.0,0,1.0,0,1.0,0,1.0
0.0061,0.04956,100.0,
1.0,0.0,0.0,350.0,420.0,504.0,0,1,1.5,0.5,1.5,1.5,33,0,0.0,0.0
1.0,0.0
29,73,0,' 1',1,1,1,0.0,0.0,2,'            ',1,0,1.0,0,1.0,0,1.0,0,1.0
0.0061,0.04956,100.0,
1.0,0.0,0.0,350.0,420.0,504.0,0,1,1.5,0.5,1.5,1.5,33,0,0.0,0.0
1.0,0.0
30,63,0,' 1',1,1,1,0.0,0.0,2,'            ',1,0,1.0,0,1.0,0,1.0,0,1.0
0.0061,0.04956,100.0,
1.0,0.0,0.0,350.0,420.0,504.0,0,1,1.5,0.5,1.5,1.5,33,0,0.0,0.0
1.0,0.0
31,85,0,' 1',1,1,1,0.0,0.0,2,'            ',1,0,1.0,0,1.0,0,1.0,0,1.0
0.0061,0.04956,100.0,
1.0,0.0,0.0,350.0,420.0,504.0,0,1,1.5,0.5,1.5,1.5,33,0,0.0,0.0
1.0,0.0
32,87,0,' 1',1,1,1,0.0,0.0,2,'            ',1,0,1.0,0,1.0,0,1.0,0,1.0
0.0061,0.04956,100.0,
1.0,0.0,0.0,350.0,420.0,504.0,0,1,1.5,0.5,1.5,1.5,33,0,0.0,0.0
1.0,0.0
33,75,0,' 1',1,1,1,0.0,0.0,2,'            ',1,0,1.0,0,1.0,0,1.0,0,1.0
0.0061,0.04956,100.0,
1.0,0.0,0.0,350.0,420.0,504.0,0,1,1.5,0.5,1.5,1.5,33,0,0.0,0.0
1.0,0.0
34,78,0,' 1',1,1,1,0.0,0.0,2,'            ',1,0,1.0,0,1.0,0,1.0,0,1.0
0.0061,0.04956,100.0,
1.0,0.0,0.0,350.0,420.0,504.0,0,1,1.5,0.5,1.5,1.5,33,0,0.0,0.0
1.0,0.0
35,95,0,' 1',1,1,1,0.0,0.0,2,'            ',1,0,1.0,0,1.0,0,1.0,0,1.0
0.0061,0.04956,100.0,
1.0,0.0,0.0,350.0,420.0,504.0,0,1,1.5,0.5,1.5,1.5,33,0,0.0,0.0
1.0,0.0
36,77,0,' 1',1,1,1,0.0,0.0,2,'            ',1,0,1.0,0,1.0,0,1.0,0,1.0
0.0061,0.04956,100.0,
1.0,0.0,0.0,350.0,420.0,504.0,0,1,1.5,0.5,1.5,1.5,33,0,0.0,0.0
1.0,0.0
37,66,0,' 1',1,1,1,0.0,0.0,2,'            ',1,0,1.0,0,1.0,0,1.0,0,1.0
0.0061,0.04956,100.0,
1.0,0.0,0.0,350.0,420.0,504.0,0,1,1.5,0.5,1.5,1.5,33,0,0.0,0.0
1.0,0.0
38,96,0,' 1',1,1,1,0.0,0.0,2,'            ',1,0,1.0,0,1.0,0,1.0,0,1.0
0.0061,0.04956,100.0,
1.0,0.0,0.0,350.0,420.0,504.0,0,1,1.5,0.5,1.5,1.5,33,0,0.0,0.0
1.0,0.0
40,68,0,' 1',1,1,1,0.0,0.0,2,'            ',1,0,1.0,0,1.0,0,1.0,0,1.0
0.0061,0.04956,100.0,
1.0,0.0,0.0,350.0,420.0,504.0,0,1,1.5,0.5,1.5,1.5,33,0,0.0,0.0
1.0,0.0
41,78,0,' 1',1,1,1,0.0,0.0,2,'            ',1,0,1.0,0,1.0,0,1.0,0,1.0
0.0061,0.04956,100.0,
1.0,0.0,0.0,350.0,420.0,504.0,0,1,1.5,0.5,1.5,1.5,33,0,0.0,0.0
1.0,0.0
42,79,0,' 1',1,1,1,0.0,0.0,2,'            ',1,0,1.0,0,1.0,0,1.0,0,1.0
0.0061,0.04956,100.0,
1.0,0.0,0.0,350.0,420.0,504.0,0,1,1.5,0.5,1.5,1.5,33,0,0.0,0.0
1.0,0.0
43,67,0,' 1',1,1,1,0.0,0.0,2,'            ',1,0,1.0,0,1.0,0,1.0,0,1.0
0.0061,0.04956,100.0,
1.0,0.0,0.0,350.0,420.0,504.0,0,1,1.5,0.5,1.5,1.5,33,0,0.0,0.0
1.0,0.0
44,80,0,' 1',1,1,1,0.0,0.0,2,'            ',1,0,1.0,0,1.0,0,1.0,0,1.0
0.0061,0.04956,100.0,
1.0,0.0,0.0,350.0,420.0,504.0,0,1,1.5,0.5,1.5,1.5,33,0,0.0,0.0
1.0,0.0
45,92,0,' 1',1,1,1,0.0,0.0,2,'            ',1,0,1.0,0,1.0,0,1.0,0,1.0
0.0061,0.04956,100.0,
1.0,0.0,0.0,350.0,420.0,504.0,0,1,1.5,0.5,1.5,1.5,33,0,0.0,0.0
1.0,0.0
47,84,0,' 1',1,1,1,0.0,0.0,2,'            ',1,0,1.0,0,1.0,0,1.0,0,1.0
0.0061,0.04956,100.0,
1.0,0.0,0.0,350.0,420.0,504.0,0,1,1.5,0.5,1.5,1.5,33,0,0.0,0.0
1.0,0.0
49,78,0,' 1',1,1,1,0.0,0.0,2,'            ',1,0,1.0,0,1.0,0,1.0,0,1.0
0.0061,0.04956,100.0,
1.0,0.0,0.0,350.0,420.0,504.0,0,1,1.5,0.5,1.5,1.5,33,0,0.0,0.0
1.0,0.0
50,67,0,' 1',1,1,1,0.0,0.0,2,'            ',1,0,1.0,0,1.0,0,1.0,0,1.0
0.0061,0.04956,100.0,
1.0,0.0,0.0,350.0,420.0,504.0,0,1,1.5,0.5,1.5,1.5,33,0,0.0,0.0
1.0,0.0
51,9,0,' 1',1,1,1,0.0,0.0,2,'            ',1,0,1.0,0,1.0,0,1.0,0,1.0
0.00228,0.07997,100.0,
1.0,0.0,0.0,700.0,840.0,1008.0,0,1,1.5,0.5,1.5,1.5,33,0,0.0,0.0
1.0,0.0
52,30,0,' 1',1,1,1,0.0,0.0,2,'            ',1,0,1.0,0,1.0,0,1.0,0,1.0
0.00228,0.07997,100.0,
1.0,0.0,0.0,700.0,840.0,1008.0,0,1,1.5,0.5,1.5,1.5,33,0,0.0,0.0
1.0,0.0
...